5AIX_shape_pose
     RDKit          3D

 28 30  0  0  0  0  0  0  0  0999 V2000
  -22.5829  -25.7432  -36.8547 C   0  0  0  0  0  0  0  0  0  0  0  0
  -22.6427  -24.6138  -37.7590 O   0  0  0  0  0  0  0  0  0  0  0  0
  -21.4574  -24.0615  -38.2766 C   0  0  0  0  0  0  0  0  0  0  0  0
  -21.5808  -22.9796  -39.1389 C   0  0  0  0  0  0  0  0  0  0  0  0
  -20.4468  -22.4013  -39.6743 C   0  0  0  0  0  0  0  0  0  0  0  0
  -19.1853  -22.9271  -39.3298 C   0  0  0  0  0  0  0  0  0  0  0  0
  -19.0497  -24.0117  -38.4661 C   0  0  0  0  0  0  0  0  0  0  0  0
  -17.6880  -24.4858  -38.1696 C   0  0  0  0  0  0  0  0  0  0  0  0
  -17.4198  -25.5583  -37.3239 C   0  0  0  0  0  0  0  0  0  0  0  0
  -16.0925  -25.9372  -37.1018 C   0  0  0  0  0  0  0  0  0  0  0  0
  -15.0467  -25.2533  -37.7168 C   0  0  0  0  0  0  0  0  0  0  0  0
  -13.6289  -25.6078  -37.5202 C   0  0  0  0  0  0  0  0  0  0  0  0
  -12.6850  -24.9530  -38.1048 O   0  0  0  0  0  0  0  0  0  0  0  0
  -13.2122  -26.6843  -36.6815 N   0  0  0  0  0  0  0  0  0  0  0  0
  -11.7838  -27.0062  -36.5117 C   0  0  1  0  0  0  0  0  0  0  0  0
  -11.3705  -26.8531  -35.0765 C   0  0  0  0  0  0  0  0  0  0  0  0
  -10.2534  -27.7829  -34.6511 C   0  0  0  0  0  0  0  0  0  0  0  0
  -10.5735  -29.1851  -34.7963 N   0  0  2  0  0  0  0  0  0  0  0  0
   -9.3934  -29.9956  -35.1130 C   0  0  0  0  0  0  0  0  0  0  0  0
   -9.4072  -31.3601  -34.4250 C   0  0  0  0  0  0  0  0  0  0  0  0
   -8.2401  -32.0235  -34.8070 F   0  0  0  0  0  0  0  0  0  0  0  0
   -9.5179  -31.2581  -33.0356 F   0  0  0  0  0  0  0  0  0  0  0  0
  -10.4818  -32.1234  -34.8465 F   0  0  0  0  0  0  0  0  0  0  0  0
  -11.6259  -29.4418  -35.7714 C   0  0  0  0  0  0  0  0  0  0  0  0
  -11.6094  -28.4596  -36.9245 C   0  0  0  0  0  0  0  0  0  0  0  0
  -15.3390  -24.1814  -38.5605 C   0  0  0  0  0  0  0  0  0  0  0  0
  -16.6550  -23.8312  -38.7602 N   0  0  0  0  0  0  0  0  0  0  0  0
  -20.1953  -24.5874  -37.9321 C   0  0  0  0  0  0  0  0  0  0  0  0
  1  2  1  0
  2  3  1  0
  3  4  2  0
  4  5  1  0
  5  6  2  0
  6  7  1  0
  7  8  1  0
  8  9  2  0
  9 10  1  0
 10 11  2  0
 11 12  1  0
 12 13  2  0
 12 14  1  0
 15 14  1  1
 15 16  1  0
 16 17  1  0
 17 18  1  0
 18 19  1  6
 19 20  1  0
 20 21  1  0
 20 22  1  0
 20 23  1  0
 18 24  1  0
 24 25  1  0
 11 26  1  0
 26 27  2  0
  7 28  2  0
 28  3  1  0
 27  8  1  0
 25 15  1  0
M  CHG  1  18   1
M  END
>  <shape_align_shape_tanimoto>  (1) 
0.65865029860236812

>  <shape_align_color_tanimoto>  (1) 
0.048519053526782874

>  <metric>  (1) 
shape

>  <metric_score>  (1) 
0.659

>  <template_pid>  (1) 
5AIX

>  <template_shape_score>  (1) 
0.659

>  <template_color_score>  (1) 
0.049

>  <template_combo_score>  (1) 
0.354

$$$$
5AIX_color_pose
     RDKit          3D

 28 30  0  0  0  0  0  0  0  0999 V2000
   -8.3135  -26.8027  -36.0431 C   0  0  0  0  0  0  0  0  0  0  0  0
   -8.7570  -27.7860  -35.1135 O   0  0  0  0  0  0  0  0  0  0  0  0
  -10.1341  -27.9577  -34.9667 C   0  0  0  0  0  0  0  0  0  0  0  0
  -10.5810  -28.9207  -34.0564 C   0  0  0  0  0  0  0  0  0  0  0  0
  -11.9330  -29.1185  -33.8846 C   0  0  0  0  0  0  0  0  0  0  0  0
  -12.8199  -28.3482  -34.6276 C   0  0  0  0  0  0  0  0  0  0  0  0
  -12.4019  -27.3951  -35.5288 C   0  0  0  0  0  0  0  0  0  0  0  0
  -13.3149  -26.5771  -36.3179 C   0  0  0  0  0  0  0  0  0  0  0  0
  -14.6872  -26.6795  -36.2386 C   0  0  0  0  0  0  0  0  0  0  0  0
  -15.5501  -25.9017  -36.9892 C   0  0  0  0  0  0  0  0  0  0  0  0
  -15.0114  -24.9780  -37.8604 C   0  0  0  0  0  0  0  0  0  0  0  0
  -15.8229  -24.1035  -38.7027 C   0  0  0  0  0  0  0  0  0  0  0  0
  -15.2852  -23.2612  -39.4864 O   0  0  0  0  0  0  0  0  0  0  0  0
  -17.2455  -24.1311  -38.7064 N   0  0  0  0  0  0  0  0  0  0  0  0
  -18.0570  -23.2691  -39.5365 C   0  0  1  0  0  0  0  0  0  0  0  0
  -19.0283  -23.9993  -40.3957 C   0  0  0  0  0  0  0  0  0  0  0  0
  -20.4417  -23.8376  -39.8709 C   0  0  0  0  0  0  0  0  0  0  0  0
  -20.4742  -24.1985  -38.4559 N   0  0  2  0  0  0  0  0  0  0  0  0
  -21.8465  -24.2094  -37.9893 C   0  0  0  0  0  0  0  0  0  0  0  0
  -22.0711  -25.4549  -37.1806 C   0  0  0  0  0  0  0  0  0  0  0  0
  -21.2070  -25.4460  -36.1162 F   0  0  0  0  0  0  0  0  0  0  0  0
  -23.3909  -25.5568  -36.7804 F   0  0  0  0  0  0  0  0  0  0  0  0
  -21.7560  -26.5510  -37.9768 F   0  0  0  0  0  0  0  0  0  0  0  0
  -19.6881  -23.2263  -37.7250 C   0  0  0  0  0  0  0  0  0  0  0  0
  -18.8435  -22.3475  -38.6138 C   0  0  0  0  0  0  0  0  0  0  0  0
  -13.6377  -24.8725  -37.9426 C   0  0  0  0  0  0  0  0  0  0  0  0
  -12.8380  -25.6515  -37.1915 N   0  0  0  0  0  0  0  0  0  0  0  0
  -11.0518  -27.2175  -35.6815 C   0  0  0  0  0  0  0  0  0  0  0  0
  1  2  1  0
  2  3  1  0
  3  4  2  0
  4  5  1  0
  5  6  2  0
  6  7  1  0
  7  8  1  0
  8  9  2  0
  9 10  1  0
 10 11  2  0
 11 12  1  0
 12 13  2  0
 12 14  1  0
 15 14  1  1
 15 16  1  0
 16 17  1  0
 17 18  1  0
 18 19  1  1
 19 20  1  0
 20 21  1  0
 20 22  1  0
 20 23  1  0
 18 24  1  0
 24 25  1  0
 11 26  1  0
 26 27  2  0
  7 28  2  0
 28  3  1  0
 27  8  1  0
 25 15  1  0
M  CHG  1  18   1
M  END
>  <shape_align_shape_tanimoto>  (2) 
0.54631371427493824

>  <shape_align_color_tanimoto>  (2) 
0.098078437639990995

>  <metric>  (2) 
color

>  <metric_score>  (2) 
0.098

>  <template_pid>  (2) 
5AIX

>  <template_shape_score>  (2) 
0.546

>  <template_color_score>  (2) 
0.098

>  <template_combo_score>  (2) 
0.322

$$$$
5AIX_combo_pose
     RDKit          3D

 28 30  0  0  0  0  0  0  0  0999 V2000
  -22.5829  -25.7432  -36.8547 C   0  0  0  0  0  0  0  0  0  0  0  0
  -22.6427  -24.6138  -37.7590 O   0  0  0  0  0  0  0  0  0  0  0  0
  -21.4574  -24.0615  -38.2766 C   0  0  0  0  0  0  0  0  0  0  0  0
  -21.5808  -22.9796  -39.1389 C   0  0  0  0  0  0  0  0  0  0  0  0
  -20.4468  -22.4013  -39.6743 C   0  0  0  0  0  0  0  0  0  0  0  0
  -19.1853  -22.9271  -39.3298 C   0  0  0  0  0  0  0  0  0  0  0  0
  -19.0497  -24.0117  -38.4661 C   0  0  0  0  0  0  0  0  0  0  0  0
  -17.6880  -24.4858  -38.1696 C   0  0  0  0  0  0  0  0  0  0  0  0
  -17.4198  -25.5583  -37.3239 C   0  0  0  0  0  0  0  0  0  0  0  0
  -16.0925  -25.9372  -37.1018 C   0  0  0  0  0  0  0  0  0  0  0  0
  -15.0467  -25.2533  -37.7168 C   0  0  0  0  0  0  0  0  0  0  0  0
  -13.6289  -25.6078  -37.5202 C   0  0  0  0  0  0  0  0  0  0  0  0
  -12.6850  -24.9530  -38.1048 O   0  0  0  0  0  0  0  0  0  0  0  0
  -13.2122  -26.6843  -36.6815 N   0  0  0  0  0  0  0  0  0  0  0  0
  -11.7838  -27.0062  -36.5117 C   0  0  1  0  0  0  0  0  0  0  0  0
  -11.3705  -26.8531  -35.0765 C   0  0  0  0  0  0  0  0  0  0  0  0
  -10.2534  -27.7829  -34.6511 C   0  0  0  0  0  0  0  0  0  0  0  0
  -10.5735  -29.1851  -34.7963 N   0  0  2  0  0  0  0  0  0  0  0  0
   -9.3934  -29.9956  -35.1130 C   0  0  0  0  0  0  0  0  0  0  0  0
   -9.4072  -31.3601  -34.4250 C   0  0  0  0  0  0  0  0  0  0  0  0
   -8.2401  -32.0235  -34.8070 F   0  0  0  0  0  0  0  0  0  0  0  0
   -9.5179  -31.2581  -33.0356 F   0  0  0  0  0  0  0  0  0  0  0  0
  -10.4818  -32.1234  -34.8465 F   0  0  0  0  0  0  0  0  0  0  0  0
  -11.6259  -29.4418  -35.7714 C   0  0  0  0  0  0  0  0  0  0  0  0
  -11.6094  -28.4596  -36.9245 C   0  0  0  0  0  0  0  0  0  0  0  0
  -15.3390  -24.1814  -38.5605 C   0  0  0  0  0  0  0  0  0  0  0  0
  -16.6550  -23.8312  -38.7602 N   0  0  0  0  0  0  0  0  0  0  0  0
  -20.1953  -24.5874  -37.9321 C   0  0  0  0  0  0  0  0  0  0  0  0
  1  2  1  0
  2  3  1  0
  3  4  2  0
  4  5  1  0
  5  6  2  0
  6  7  1  0
  7  8  1  0
  8  9  2  0
  9 10  1  0
 10 11  2  0
 11 12  1  0
 12 13  2  0
 12 14  1  0
 15 14  1  1
 15 16  1  0
 16 17  1  0
 17 18  1  0
 18 19  1  6
 19 20  1  0
 20 21  1  0
 20 22  1  0
 20 23  1  0
 18 24  1  0
 24 25  1  0
 11 26  1  0
 26 27  2  0
  7 28  2  0
 28  3  1  0
 27  8  1  0
 25 15  1  0
M  CHG  1  18   1
M  END
>  <shape_align_shape_tanimoto>  (3) 
0.65865029860236812

>  <shape_align_color_tanimoto>  (3) 
0.048519053526782874

>  <metric>  (3) 
combo

>  <metric_score>  (3) 
0.354

>  <template_pid>  (3) 
5AIX

>  <template_shape_score>  (3) 
0.659

>  <template_color_score>  (3) 
0.049

>  <template_combo_score>  (3) 
0.354

$$$$
