4NRQ_shape_pose
     RDKit          3D

 12 12  0  0  0  0  0  0  0  0999 V2000
  -14.6935    6.5362  -11.0128 O   0  0  0  0  0  0  0  0  0  0  0  0
  -15.8406    6.7408  -11.4738 C   0  0  0  0  0  0  0  0  0  0  0  0
  -16.7847    7.4280  -10.7122 O   0  0  0  0  0  0  0  0  0  0  0  0
  -16.2009    6.2709  -12.7938 C   0  0  0  0  0  0  0  0  0  0  0  0
  -17.4596    6.4913  -13.3087 C   0  0  0  0  0  0  0  0  0  0  0  0
  -17.7806    6.0348  -14.5681 C   0  0  0  0  0  0  0  0  0  0  0  0
  -16.8552    5.3635  -15.3097 N   0  0  0  0  0  0  0  0  0  0  0  0
  -15.6194    5.1344  -14.8317 C   0  0  0  0  0  0  0  0  0  0  0  0
  -14.6872    4.4097  -15.6853 C   0  0  0  0  0  0  0  0  0  0  0  0
  -15.1025    4.0443  -16.8191 O   0  0  0  0  0  0  0  0  0  0  0  0
  -13.3932    4.1108  -15.3148 O   0  0  0  0  0  0  0  0  0  0  0  0
  -15.3003    5.5889  -13.5785 C   0  0  0  0  0  0  0  0  0  0  0  0
  1  2  2  0
  2  3  1  0
  2  4  1  0
  4  5  2  0
  5  6  1  0
  6  7  2  0
  7  8  1  0
  8  9  1  0
  9 10  2  0
  9 11  1  0
  8 12  2  0
 12  4  1  0
M  CHG  2   3  -1  11  -1
M  END
>  <shape_align_shape_tanimoto>  (1) 
0.3749680300177694

>  <shape_align_color_tanimoto>  (1) 
0.026478133766010607

>  <metric>  (1) 
shape

>  <metric_score>  (1) 
0.375

>  <template_pid>  (1) 
4NRQ

>  <template_shape_score>  (1) 
0.375

>  <template_color_score>  (1) 
0.026

>  <template_combo_score>  (1) 
0.201

$$$$
4NRQ_color_pose
     RDKit          3D

 12 12  0  0  0  0  0  0  0  0999 V2000
  -15.0905    4.0558  -16.4891 O   0  0  0  0  0  0  0  0  0  0  0  0
  -15.9424    4.7521  -15.8397 C   0  0  0  0  0  0  0  0  0  0  0  0
  -17.1358    5.0107  -16.4990 O   0  0  0  0  0  0  0  0  0  0  0  0
  -15.6698    5.2389  -14.4945 C   0  0  0  0  0  0  0  0  0  0  0  0
  -14.4586    4.9324  -13.9215 C   0  0  0  0  0  0  0  0  0  0  0  0
  -14.1989    5.3971  -12.6375 C   0  0  0  0  0  0  0  0  0  0  0  0
  -15.0842    6.1307  -11.9410 N   0  0  0  0  0  0  0  0  0  0  0  0
  -16.2706    6.4266  -12.5119 C   0  0  0  0  0  0  0  0  0  0  0  0
  -17.2187    7.2227  -11.7430 C   0  0  0  0  0  0  0  0  0  0  0  0
  -16.8840    7.5911  -10.5930 O   0  0  0  0  0  0  0  0  0  0  0  0
  -18.4598    7.5541  -12.2923 O   0  0  0  0  0  0  0  0  0  0  0  0
  -16.5742    5.9899  -13.7793 C   0  0  0  0  0  0  0  0  0  0  0  0
  1  2  2  0
  2  3  1  0
  2  4  1  0
  4  5  2  0
  5  6  1  0
  6  7  2  0
  7  8  1  0
  8  9  1  0
  9 10  2  0
  9 11  1  0
  8 12  2  0
 12  4  1  0
M  CHG  2   3  -1  11  -1
M  END
>  <shape_align_shape_tanimoto>  (2) 
0.35605278179600441

>  <shape_align_color_tanimoto>  (2) 
0.059376565416782087

>  <metric>  (2) 
color

>  <metric_score>  (2) 
0.059

>  <template_pid>  (2) 
4NRQ

>  <template_shape_score>  (2) 
0.356

>  <template_color_score>  (2) 
0.059

>  <template_combo_score>  (2) 
0.208

$$$$
4NRQ_combo_pose
     RDKit          3D

 12 12  0  0  0  0  0  0  0  0999 V2000
  -14.7553    4.0064  -16.7292 O   0  0  0  0  0  0  0  0  0  0  0  0
  -15.6834    4.4273  -15.9850 C   0  0  0  0  0  0  0  0  0  0  0  0
  -16.9977    4.1811  -16.3634 O   0  0  0  0  0  0  0  0  0  0  0  0
  -15.4041    5.1572  -14.7519 C   0  0  0  0  0  0  0  0  0  0  0  0
  -14.0855    5.3821  -14.4098 C   0  0  0  0  0  0  0  0  0  0  0  0
  -13.8335    6.0667  -13.2530 C   0  0  0  0  0  0  0  0  0  0  0  0
  -14.8368    6.5008  -12.4838 N   0  0  0  0  0  0  0  0  0  0  0  0
  -16.1150    6.2852  -12.8115 C   0  0  0  0  0  0  0  0  0  0  0  0
  -17.1747    6.7834  -11.9315 C   0  0  0  0  0  0  0  0  0  0  0  0
  -18.3977    6.5838  -12.2336 O   0  0  0  0  0  0  0  0  0  0  0  0
  -16.8849    7.4698  -10.7728 O   0  0  0  0  0  0  0  0  0  0  0  0
  -16.4492    5.6047  -13.9587 C   0  0  0  0  0  0  0  0  0  0  0  0
  1  2  2  0
  2  3  1  0
  2  4  1  0
  4  5  2  0
  5  6  1  0
  6  7  2  0
  7  8  1  0
  8  9  1  0
  9 10  2  0
  9 11  1  0
  8 12  2  0
 12  4  1  0
M  CHG  2   3  -1  11  -1
M  END
>  <shape_align_shape_tanimoto>  (3) 
0.36966757422469065

>  <shape_align_color_tanimoto>  (3) 
0.05676244225892392

>  <metric>  (3) 
combo

>  <metric_score>  (3) 
0.213

>  <template_pid>  (3) 
4NRQ

>  <template_shape_score>  (3) 
0.370

>  <template_color_score>  (3) 
0.057

>  <template_combo_score>  (3) 
0.213

$$$$
