2UY4_shape_pose
     RDKit          3D

 13 13  0  0  0  0  0  0  0  0999 V2000
   52.9310   46.6345   32.2552 C   0  0  0  0  0  0  0  0  0  0  0  0
   51.7409   47.4637   32.6187 C   0  0  0  0  0  0  0  0  0  0  0  0
   50.5623   47.0596   32.4256 O   0  0  0  0  0  0  0  0  0  0  0  0
   51.8957   48.7565   33.2036 N   0  0  0  0  0  0  0  0  0  0  0  0
   50.6898   49.4705   33.5149 C   0  0  0  0  0  0  0  0  0  0  0  0
   49.8901   50.2594   33.0324 N   0  0  0  0  0  0  0  0  0  0  0  0
   48.8573   50.7076   33.6555 N   0  0  0  0  0  0  0  0  0  0  0  0
   48.5196   50.4370   34.7702 C   0  0  0  0  0  0  0  0  0  0  0  0
   47.3372   50.7056   36.0107 S   0  0  0  0  0  0  0  0  0  0  0  0
   47.8712   52.0601   36.9590 N   0  0  0  0  0  0  0  0  0  0  0  0
   45.9921   51.0155   35.4695 O   0  0  0  0  0  0  0  0  0  0  0  0
   47.1753   49.5261   36.9377 O   0  0  0  0  0  0  0  0  0  0  0  0
   49.9189   49.2332   35.2287 S   0  0  0  0  0  0  0  0  0  0  0  0
  1  2  1  0
  2  3  2  0
  2  4  1  0
  4  5  1  0
  5  6  2  0
  6  7  1  0
  7  8  2  0
  8  9  1  0
  9 10  1  0
  9 11  2  0
  9 12  2  0
  8 13  1  0
 13  5  1  0
M  END
>  <shape_align_shape_tanimoto>  (1) 
0.52251880460698252

>  <shape_align_color_tanimoto>  (1) 
0.10282174646086625

>  <metric>  (1) 
shape

>  <metric_score>  (1) 
0.523

>  <template_pid>  (1) 
2UY4

>  <template_shape_score>  (1) 
0.523

>  <template_color_score>  (1) 
0.103

>  <template_combo_score>  (1) 
0.313

$$$$
2UY4_color_pose
     RDKit          3D

 13 13  0  0  0  0  0  0  0  0999 V2000
   52.7364   47.2531   32.1768 C   0  0  0  0  0  0  0  0  0  0  0  0
   51.5520   47.8066   32.9124 C   0  0  0  0  0  0  0  0  0  0  0  0
   50.5461   47.0937   33.1691 O   0  0  0  0  0  0  0  0  0  0  0  0
   51.5800   49.1623   33.3208 N   0  0  0  0  0  0  0  0  0  0  0  0
   50.3612   49.6243   34.0444 C   0  0  0  0  0  0  0  0  0  0  0  0
   49.8724   49.7341   35.0757 N   0  0  0  0  0  0  0  0  0  0  0  0
   48.6905   50.2294   35.3127 N   0  0  0  0  0  0  0  0  0  0  0  0
   47.9589   50.6308   34.5283 C   0  0  0  0  0  0  0  0  0  0  0  0
   46.3365   51.3668   34.3011 S   0  0  0  0  0  0  0  0  0  0  0  0
   45.1662   50.1325   34.0779 N   0  0  0  0  0  0  0  0  0  0  0  0
   46.1163   52.1943   35.5196 O   0  0  0  0  0  0  0  0  0  0  0  0
   46.4055   52.3022   33.1327 O   0  0  0  0  0  0  0  0  0  0  0  0
   48.9901   50.3395   32.9379 S   0  0  0  0  0  0  0  0  0  0  0  0
  1  2  1  0
  2  3  2  0
  2  4  1  0
  4  5  1  0
  5  6  2  0
  6  7  1  0
  7  8  2  0
  8  9  1  0
  9 10  1  0
  9 11  2  0
  9 12  2  0
  8 13  1  0
 13  5  1  0
M  END
>  <shape_align_shape_tanimoto>  (2) 
0.49011340340477128

>  <shape_align_color_tanimoto>  (2) 
0.19134286884441171

>  <metric>  (2) 
color

>  <metric_score>  (2) 
0.191

>  <template_pid>  (2) 
2UY4

>  <template_shape_score>  (2) 
0.490

>  <template_color_score>  (2) 
0.191

>  <template_combo_score>  (2) 
0.341

$$$$
2UY4_combo_pose
     RDKit          3D

 13 13  0  0  0  0  0  0  0  0999 V2000
   52.7696   47.1700   32.2970 C   0  0  0  0  0  0  0  0  0  0  0  0
   51.5887   47.8359   32.9062 C   0  0  0  0  0  0  0  0  0  0  0  0
   50.5462   47.1215   33.0589 O   0  0  0  0  0  0  0  0  0  0  0  0
   51.5549   49.1788   33.3151 N   0  0  0  0  0  0  0  0  0  0  0  0
   50.3281   49.6594   33.8855 C   0  0  0  0  0  0  0  0  0  0  0  0
   49.8686   49.7084   35.0564 N   0  0  0  0  0  0  0  0  0  0  0  0
   48.7082   50.2015   35.3142 N   0  0  0  0  0  0  0  0  0  0  0  0
   47.9528   50.6586   34.4863 C   0  0  0  0  0  0  0  0  0  0  0  0
   46.3558   51.4050   34.3486 S   0  0  0  0  0  0  0  0  0  0  0  0
   45.1723   50.1425   34.1028 N   0  0  0  0  0  0  0  0  0  0  0  0
   46.3200   52.3148   33.1538 O   0  0  0  0  0  0  0  0  0  0  0  0
   46.1415   52.1570   35.6031 O   0  0  0  0  0  0  0  0  0  0  0  0
   48.9911   50.4000   32.9208 S   0  0  0  0  0  0  0  0  0  0  0  0
  1  2  1  0
  2  3  2  0
  2  4  1  0
  4  5  1  0
  5  6  2  0
  6  7  1  0
  7  8  2  0
  8  9  1  0
  9 10  1  0
  9 11  2  0
  9 12  2  0
  8 13  1  0
 13  5  1  0
M  END
>  <shape_align_shape_tanimoto>  (3) 
0.4959508379885329

>  <shape_align_color_tanimoto>  (3) 
0.1874594544791986

>  <metric>  (3) 
combo

>  <metric_score>  (3) 
0.342

>  <template_pid>  (3) 
2UY4

>  <template_shape_score>  (3) 
0.496

>  <template_color_score>  (3) 
0.187

>  <template_combo_score>  (3) 
0.342

$$$$
