5VIJ_shape_pose
     RDKit          3D

 21 22  0  0  0  0  0  0  0  0999 V2000
   18.8288   -0.2403   10.8230 N   0  0  0  0  0  0  0  0  0  0  0  0
   19.6981   -1.3411   10.3499 C   0  0  2  0  0  0  0  0  0  0  0  0
   19.9291   -2.2008   11.5258 C   0  0  0  0  0  0  0  0  0  0  0  0
   20.7856   -3.4104   11.3493 C   0  0  1  0  0  0  0  0  0  0  0  0
   20.1602   -4.3202   10.3098 C   0  0  0  0  0  0  0  0  0  0  0  0
   21.3602   -5.0297    9.8042 C   0  0  2  0  0  0  0  0  0  0  0  0
   21.5365   -6.2522   10.6390 C   0  0  0  0  0  0  0  0  0  0  0  0
   22.3419   -6.2941   11.5897 O   0  0  0  0  0  0  0  0  0  0  0  0
   20.7422   -7.3518   10.2905 O   0  0  0  0  0  0  0  0  0  0  0  0
   22.4476   -4.1440   10.1049 N   0  0  0  0  0  0  0  0  0  0  0  0
   22.1356   -3.2355   10.9695 N   0  0  0  0  0  0  0  0  0  0  0  0
   23.1434   -2.3021   11.3844 C   0  0  0  0  0  0  0  0  0  0  0  0
   24.2525   -2.0296   10.5725 C   0  0  0  0  0  0  0  0  0  0  0  0
   25.2418   -1.1560   10.9481 C   0  0  0  0  0  0  0  0  0  0  0  0
   25.1719   -0.5150   12.1473 C   0  0  0  0  0  0  0  0  0  0  0  0
   26.5628    0.6843   12.6240 Br  0  0  0  0  0  0  0  0  0  0  0  0
   24.1068   -0.7510   12.9724 C   0  0  0  0  0  0  0  0  0  0  0  0
   23.1054   -1.6410   12.5829 C   0  0  0  0  0  0  0  0  0  0  0  0
   20.8479   -0.8150    9.6266 C   0  0  0  0  0  0  0  0  0  0  0  0
   21.2172    0.3799    9.8984 O   0  0  0  0  0  0  0  0  0  0  0  0
   21.5789   -1.5005    8.6642 O   0  0  0  0  0  0  0  0  0  0  0  0
  2  1  1  1
  2  3  1  0
  4  3  1  6
  4  5  1  0
  5  6  1  0
  6  7  1  1
  7  8  2  0
  7  9  1  0
  6 10  1  0
 10 11  2  0
 11 12  1  0
 12 13  2  0
 13 14  1  0
 14 15  2  0
 15 16  1  0
 15 17  1  0
 17 18  2  0
  2 19  1  0
 19 20  2  0
 19 21  1  0
 11  4  1  0
 18 12  1  0
M  CHG  4   1   1   9  -1  11   1  21  -1
M  END
>  <shape_align_shape_tanimoto>  (1) 
0.53983190538687442

>  <shape_align_color_tanimoto>  (1) 
0.0012107584535861538

>  <metric>  (1) 
shape

>  <metric_score>  (1) 
0.540

>  <template_pid>  (1) 
5VIJ

>  <template_shape_score>  (1) 
0.540

>  <template_color_score>  (1) 
0.001

>  <template_combo_score>  (1) 
0.271

$$$$
5VIJ_color_pose
     RDKit          3D

 21 22  0  0  0  0  0  0  0  0999 V2000
   24.2339   -2.7929   13.2947 N   0  0  0  0  0  0  0  0  0  0  0  0
   23.7800   -1.6474   12.5895 C   0  0  2  0  0  0  0  0  0  0  0  0
   22.3458   -1.5982   12.1596 C   0  0  0  0  0  0  0  0  0  0  0  0
   21.9952   -2.6687   11.2254 C   0  0  1  0  0  0  0  0  0  0  0  0
   22.1640   -4.0585   11.7635 C   0  0  0  0  0  0  0  0  0  0  0  0
   21.3505   -4.8321   10.6874 C   0  0  2  0  0  0  0  0  0  0  0  0
   22.1801   -5.0568    9.4939 C   0  0  0  0  0  0  0  0  0  0  0  0
   21.7379   -5.8057    8.5968 O   0  0  0  0  0  0  0  0  0  0  0  0
   23.4311   -4.4919    9.2894 O   0  0  0  0  0  0  0  0  0  0  0  0
   20.2984   -3.9056   10.4189 N   0  0  0  0  0  0  0  0  0  0  0  0
   20.6423   -2.6838   10.7160 N   0  0  0  0  0  0  0  0  0  0  0  0
   19.6890   -1.6516   10.5137 C   0  0  0  0  0  0  0  0  0  0  0  0
   18.8885   -1.7117    9.3631 C   0  0  0  0  0  0  0  0  0  0  0  0
   17.9223   -0.7725    9.0885 C   0  0  0  0  0  0  0  0  0  0  0  0
   17.6906    0.2862    9.9403 C   0  0  0  0  0  0  0  0  0  0  0  0
   16.3786    1.6086    9.6182 Br  0  0  0  0  0  0  0  0  0  0  0  0
   18.4681    0.3570   11.0722 C   0  0  0  0  0  0  0  0  0  0  0  0
   19.4517   -0.6005   11.3509 C   0  0  0  0  0  0  0  0  0  0  0  0
   24.6878   -1.4360   11.3891 C   0  0  0  0  0  0  0  0  0  0  0  0
   24.7644   -0.2714   10.8851 O   0  0  0  0  0  0  0  0  0  0  0  0
   25.4097   -2.5002   10.8673 O   0  0  0  0  0  0  0  0  0  0  0  0
  2  1  1  6
  2  3  1  0
  4  3  1  1
  4  5  1  0
  5  6  1  0
  6  7  1  6
  7  8  2  0
  7  9  1  0
  6 10  1  0
 10 11  2  0
 11 12  1  0
 12 13  2  0
 13 14  1  0
 14 15  2  0
 15 16  1  0
 15 17  1  0
 17 18  2  0
  2 19  1  0
 19 20  2  0
 19 21  1  0
 11  4  1  0
 18 12  1  0
M  CHG  4   1   1   9  -1  11   1  21  -1
M  END
>  <shape_align_shape_tanimoto>  (2) 
0.50355588581776312

>  <shape_align_color_tanimoto>  (2) 
0.14542175356906642

>  <metric>  (2) 
color

>  <metric_score>  (2) 
0.145

>  <template_pid>  (2) 
5VIJ

>  <template_shape_score>  (2) 
0.504

>  <template_color_score>  (2) 
0.145

>  <template_combo_score>  (2) 
0.324

$$$$
5VIJ_combo_pose
     RDKit          3D

 21 22  0  0  0  0  0  0  0  0999 V2000
   23.8365   -0.8879   13.6300 N   0  0  0  0  0  0  0  0  0  0  0  0
   23.3373   -1.2876   12.2966 C   0  0  2  0  0  0  0  0  0  0  0  0
   22.7754   -2.6513   12.4516 C   0  0  0  0  0  0  0  0  0  0  0  0
   22.1955   -3.3092   11.2781 C   0  0  1  0  0  0  0  0  0  0  0  0
   21.7616   -4.7346   11.7140 C   0  0  0  0  0  0  0  0  0  0  0  0
   21.1039   -5.0885   10.3523 C   0  0  2  0  0  0  0  0  0  0  0  0
   22.2020   -5.1925    9.3736 C   0  0  0  0  0  0  0  0  0  0  0  0
   22.9410   -6.2104    9.4290 O   0  0  0  0  0  0  0  0  0  0  0  0
   22.4751   -4.2473    8.3967 O   0  0  0  0  0  0  0  0  0  0  0  0
   20.3218   -3.9018   10.1949 N   0  0  0  0  0  0  0  0  0  0  0  0
   20.9566   -2.8736   10.7370 N   0  0  0  0  0  0  0  0  0  0  0  0
   20.2614   -1.6334   10.7000 C   0  0  0  0  0  0  0  0  0  0  0  0
   20.0196   -0.8193   11.7703 C   0  0  0  0  0  0  0  0  0  0  0  0
   19.3376    0.3760   11.6712 C   0  0  0  0  0  0  0  0  0  0  0  0
   18.8612    0.8019   10.4439 C   0  0  0  0  0  0  0  0  0  0  0  0
   17.9269    2.4570   10.3577 Br  0  0  0  0  0  0  0  0  0  0  0  0
   19.0880    0.0067    9.3504 C   0  0  0  0  0  0  0  0  0  0  0  0
   19.7736   -1.1900    9.4640 C   0  0  0  0  0  0  0  0  0  0  0  0
   24.5313   -1.3156   11.3832 C   0  0  0  0  0  0  0  0  0  0  0  0
   24.9954   -2.3543   10.8949 O   0  0  0  0  0  0  0  0  0  0  0  0
   25.1363   -0.1137   11.0781 O   0  0  0  0  0  0  0  0  0  0  0  0
  2  1  1  1
  2  3  1  0
  4  3  1  1
  4  5  1  0
  5  6  1  0
  6  7  1  6
  7  8  2  0
  7  9  1  0
  6 10  1  0
 10 11  2  0
 11 12  1  0
 12 13  2  0
 13 14  1  0
 14 15  2  0
 15 16  1  0
 15 17  1  0
 17 18  2  0
  2 19  1  0
 19 20  2  0
 19 21  1  0
 11  4  1  0
 18 12  1  0
M  CHG  4   1   1   9  -1  11   1  21  -1
M  END
>  <shape_align_shape_tanimoto>  (3) 
0.52395578518073116

>  <shape_align_color_tanimoto>  (3) 
0.13986752235559247

>  <metric>  (3) 
combo

>  <metric_score>  (3) 
0.332

>  <template_pid>  (3) 
5VIJ

>  <template_shape_score>  (3) 
0.524

>  <template_color_score>  (3) 
0.140

>  <template_combo_score>  (3) 
0.332

$$$$
