2V5X_shape_pose
     RDKit          3D

 46 50  0  0  0  0  0  0  0  0999 V2000
  -12.9389    9.6623  -10.2822 C   0  0  0  0  0  0  0  0  0  0  0  0
  -14.0686    9.2520   -9.5892 O   0  0  0  0  0  0  0  0  0  0  0  0
  -15.1138    8.4837  -10.0322 C   0  0  0  0  0  0  0  0  0  0  0  0
  -16.1295    8.2263   -9.1010 C   0  0  0  0  0  0  0  0  0  0  0  0
  -17.2230    7.4471   -9.4969 C   0  0  0  0  0  0  0  0  0  0  0  0
  -17.2586    6.9599  -10.7953 C   0  0  0  0  0  0  0  0  0  0  0  0
  -18.1943    6.1870  -11.4220 N   0  0  0  0  0  0  0  0  0  0  0  0
  -17.8151    5.9507  -12.6903 C   0  0  0  0  0  0  0  0  0  0  0  0
  -18.5499    5.1495  -13.7247 C   0  0  0  0  0  0  0  0  0  0  0  0
  -16.5868    6.6081  -12.8573 C   0  0  0  0  0  0  0  0  0  0  0  0
  -15.8677    6.5480  -14.1610 C   0  0  0  0  0  0  0  0  0  0  0  0
  -15.1912    5.2208  -14.2710 C   0  0  0  0  0  0  0  0  0  0  0  0
  -15.3071    4.4675  -13.2506 O   0  0  0  0  0  0  0  0  0  0  0  0
  -14.4730    4.8203  -15.4182 N   0  0  0  0  0  0  0  0  0  0  0  0
  -13.8145    3.5197  -15.4868 C   0  0  2  0  0  0  0  0  0  0  0  0
  -12.3700    3.6795  -15.7699 C   0  0  0  0  0  0  0  0  0  0  0  0
  -11.9757    4.3639  -17.0236 C   0  0  0  0  0  0  0  0  0  0  0  0
  -12.4799    3.6259  -18.2277 C   0  0  0  0  0  0  0  0  0  0  0  0
  -12.0668    4.2958  -19.5194 C   0  0  0  0  0  0  0  0  0  0  0  0
  -10.6049    4.4198  -19.7115 C   0  0  0  0  0  0  0  0  0  0  0  0
   -9.9583    3.0955  -19.7502 C   0  0  0  0  0  0  0  0  0  0  0  0
  -10.5249    1.9943  -19.6881 O   0  0  0  0  0  0  0  0  0  0  0  0
   -8.5296    3.0811  -19.8722 N   0  0  0  0  0  0  0  0  0  0  0  0
   -7.8362    1.9254  -19.9174 O   0  0  0  0  0  0  0  0  0  0  0  0
  -14.5459    2.5275  -16.2943 C   0  0  0  0  0  0  0  0  0  0  0  0
  -15.6977    2.7646  -16.8057 O   0  0  0  0  0  0  0  0  0  0  0  0
  -13.9330    1.2612  -16.5025 N   0  0  0  0  0  0  0  0  0  0  0  0
  -14.6543    0.2740  -17.2962 C   0  0  0  0  0  0  0  0  0  0  0  0
  -13.8618   -0.9894  -17.4212 C   0  0  0  0  0  0  0  0  0  0  0  0
  -13.5235   -1.6679  -16.1758 C   0  0  0  0  0  0  0  0  0  0  0  0
  -14.2992   -2.4391  -15.3385 C   0  0  0  0  0  0  0  0  0  0  0  0
  -15.6875   -2.8308  -15.4201 C   0  0  0  0  0  0  0  0  0  0  0  0
  -16.2336   -3.5164  -14.3264 C   0  0  0  0  0  0  0  0  0  0  0  0
  -17.5474   -3.9369  -14.3502 C   0  0  0  0  0  0  0  0  0  0  0  0
  -18.3865   -3.7210  -15.4118 C   0  0  0  0  0  0  0  0  0  0  0  0
  -17.8675   -3.0511  -16.4913 C   0  0  0  0  0  0  0  0  0  0  0  0
  -16.5362   -2.6261  -16.4652 C   0  0  0  0  0  0  0  0  0  0  0  0
  -13.4960   -2.8121  -14.3086 N   0  0  0  0  0  0  0  0  0  0  0  0
  -12.2677   -2.3307  -14.4391 C   0  0  0  0  0  0  0  0  0  0  0  0
  -11.1261   -2.4381  -13.6684 C   0  0  0  0  0  0  0  0  0  0  0  0
   -9.9526   -1.8341  -14.0347 C   0  0  0  0  0  0  0  0  0  0  0  0
   -9.9021   -1.1008  -15.1975 C   0  0  0  0  0  0  0  0  0  0  0  0
  -11.0559   -1.0070  -15.9515 C   0  0  0  0  0  0  0  0  0  0  0  0
  -12.2444   -1.6067  -15.5998 C   0  0  0  0  0  0  0  0  0  0  0  0
  -16.2362    7.2354  -11.6867 C   0  0  0  0  0  0  0  0  0  0  0  0
  -15.1496    8.0024  -11.3145 C   0  0  0  0  0  0  0  0  0  0  0  0
  1  2  1  0
  2  3  1  0
  3  4  2  0
  4  5  1  0
  5  6  2  0
  6  7  1  0
  7  8  1  0
  8  9  1  0
  8 10  2  0
 10 11  1  0
 11 12  1  0
 12 13  2  0
 12 14  1  0
 14 15  1  0
 15 16  1  6
 16 17  1  0
 17 18  1  0
 18 19  1  0
 19 20  1  0
 20 21  1  0
 21 22  2  0
 21 23  1  0
 23 24  1  0
 15 25  1  0
 25 26  2  0
 25 27  1  0
 27 28  1  0
 28 29  1  0
 29 30  1  0
 30 31  2  0
 31 32  1  0
 32 33  2  0
 33 34  1  0
 34 35  2  0
 35 36  1  0
 36 37  2  0
 31 38  1  0
 38 39  1  0
 39 40  2  0
 40 41  1  0
 41 42  2  0
 42 43  1  0
 43 44  2  0
 10 45  1  0
 45 46  2  0
 46  3  1  0
 45  6  1  0
 44 30  1  0
 37 32  1  0
 44 39  1  0
M  END
>  <shape_align_shape_tanimoto>  (1) 
0.54131354604351223

>  <shape_align_color_tanimoto>  (1) 
0.068135483553408607

>  <metric>  (1) 
shape

>  <metric_score>  (1) 
0.541

>  <template_pid>  (1) 
2V5X

>  <template_shape_score>  (1) 
0.541

>  <template_color_score>  (1) 
0.068

>  <template_combo_score>  (1) 
0.305

$$$$
2V5X_color_pose
     RDKit          3D

 46 50  0  0  0  0  0  0  0  0999 V2000
  -16.4411    6.5142   -8.1493 C   0  0  0  0  0  0  0  0  0  0  0  0
  -15.7908    6.5299   -9.3866 O   0  0  0  0  0  0  0  0  0  0  0  0
  -16.4235    6.4169  -10.6077 C   0  0  0  0  0  0  0  0  0  0  0  0
  -17.8083    6.2740  -10.7203 C   0  0  0  0  0  0  0  0  0  0  0  0
  -18.4269    6.1615  -11.9632 C   0  0  0  0  0  0  0  0  0  0  0  0
  -17.6816    6.1884  -13.1265 C   0  0  0  0  0  0  0  0  0  0  0  0
  -17.9839    6.0944  -14.4456 N   0  0  0  0  0  0  0  0  0  0  0  0
  -16.8306    6.1730  -15.1713 C   0  0  0  0  0  0  0  0  0  0  0  0
  -16.8092    6.1105  -16.6489 C   0  0  0  0  0  0  0  0  0  0  0  0
  -15.7691    6.3213  -14.2806 C   0  0  0  0  0  0  0  0  0  0  0  0
  -14.3561    6.4171  -14.7429 C   0  0  0  0  0  0  0  0  0  0  0  0
  -13.8558    5.0311  -15.0191 C   0  0  0  0  0  0  0  0  0  0  0  0
  -13.6578    4.2932  -14.0287 O   0  0  0  0  0  0  0  0  0  0  0  0
  -13.6167    4.5805  -16.3764 N   0  0  0  0  0  0  0  0  0  0  0  0
  -13.1181    3.2072  -16.4593 C   0  0  2  0  0  0  0  0  0  0  0  0
  -12.1928    2.9781  -17.6087 C   0  0  0  0  0  0  0  0  0  0  0  0
  -10.9607    3.8978  -17.5136 C   0  0  0  0  0  0  0  0  0  0  0  0
  -10.1105    3.5571  -18.6907 C   0  0  0  0  0  0  0  0  0  0  0  0
   -8.8259    4.2643  -18.8600 C   0  0  0  0  0  0  0  0  0  0  0  0
   -8.8452    5.7275  -19.0179 C   0  0  0  0  0  0  0  0  0  0  0  0
   -9.2734    6.5387  -17.8855 C   0  0  0  0  0  0  0  0  0  0  0  0
   -9.4200    6.2175  -16.6963 O   0  0  0  0  0  0  0  0  0  0  0  0
   -9.5745    7.9323  -18.1810 N   0  0  0  0  0  0  0  0  0  0  0  0
   -9.9831    8.7430  -17.1562 O   0  0  0  0  0  0  0  0  0  0  0  0
  -14.3471    2.3440  -16.6583 C   0  0  0  0  0  0  0  0  0  0  0  0
  -15.4879    2.8190  -16.7803 O   0  0  0  0  0  0  0  0  0  0  0  0
  -14.1290    0.9022  -16.6978 N   0  0  0  0  0  0  0  0  0  0  0  0
  -15.2877    0.1040  -16.8752 C   0  0  0  0  0  0  0  0  0  0  0  0
  -15.1470   -1.3846  -16.9343 C   0  0  0  0  0  0  0  0  0  0  0  0
  -14.5066   -1.9996  -15.7832 C   0  0  0  0  0  0  0  0  0  0  0  0
  -13.1847   -2.2322  -15.5241 C   0  0  0  0  0  0  0  0  0  0  0  0
  -11.9967   -2.0608  -16.3291 C   0  0  0  0  0  0  0  0  0  0  0  0
  -11.9433   -1.5680  -17.6076 C   0  0  0  0  0  0  0  0  0  0  0  0
  -10.7777   -1.4659  -18.3479 C   0  0  0  0  0  0  0  0  0  0  0  0
   -9.5635   -1.8567  -17.8477 C   0  0  0  0  0  0  0  0  0  0  0  0
   -9.5916   -2.3620  -16.5432 C   0  0  0  0  0  0  0  0  0  0  0  0
  -10.7528   -2.4610  -15.8139 C   0  0  0  0  0  0  0  0  0  0  0  0
  -13.1199   -2.7659  -14.2626 N   0  0  0  0  0  0  0  0  0  0  0  0
  -14.3373   -2.8774  -13.7276 C   0  0  0  0  0  0  0  0  0  0  0  0
  -14.7339   -3.3660  -12.4691 C   0  0  0  0  0  0  0  0  0  0  0  0
  -16.0860   -3.3387  -12.2306 C   0  0  0  0  0  0  0  0  0  0  0  0
  -17.0327   -2.8828  -13.1109 C   0  0  0  0  0  0  0  0  0  0  0  0
  -16.5795   -2.4161  -14.3310 C   0  0  0  0  0  0  0  0  0  0  0  0
  -15.2234   -2.4096  -14.6488 C   0  0  0  0  0  0  0  0  0  0  0  0
  -16.2922    6.3314  -13.0200 C   0  0  0  0  0  0  0  0  0  0  0  0
  -15.6883    6.4430  -11.7661 C   0  0  0  0  0  0  0  0  0  0  0  0
  1  2  1  0
  2  3  1  0
  3  4  2  0
  4  5  1  0
  5  6  2  0
  6  7  1  0
  7  8  1  0
  8  9  1  0
  8 10  2  0
 10 11  1  0
 11 12  1  0
 12 13  2  0
 12 14  1  0
 14 15  1  0
 15 16  1  6
 16 17  1  0
 17 18  1  0
 18 19  1  0
 19 20  1  0
 20 21  1  0
 21 22  2  0
 21 23  1  0
 23 24  1  0
 15 25  1  0
 25 26  2  0
 25 27  1  0
 27 28  1  0
 28 29  1  0
 29 30  1  0
 30 31  2  0
 31 32  1  0
 32 33  2  0
 33 34  1  0
 34 35  2  0
 35 36  1  0
 36 37  2  0
 31 38  1  0
 38 39  1  0
 39 40  2  0
 40 41  1  0
 41 42  2  0
 42 43  1  0
 43 44  2  0
 10 45  1  0
 45 46  2  0
 46  3  1  0
 45  6  1  0
 44 30  1  0
 37 32  1  0
 44 39  1  0
M  END
>  <shape_align_shape_tanimoto>  (2) 
0.48895434655360898

>  <shape_align_color_tanimoto>  (2) 
0.09641806436829399

>  <metric>  (2) 
color

>  <metric_score>  (2) 
0.096

>  <template_pid>  (2) 
2V5X

>  <template_shape_score>  (2) 
0.489

>  <template_color_score>  (2) 
0.096

>  <template_combo_score>  (2) 
0.293

$$$$
2V5X_combo_pose
     RDKit          3D

 46 50  0  0  0  0  0  0  0  0999 V2000
  -12.9389    9.6623  -10.2822 C   0  0  0  0  0  0  0  0  0  0  0  0
  -14.0686    9.2520   -9.5892 O   0  0  0  0  0  0  0  0  0  0  0  0
  -15.1138    8.4837  -10.0322 C   0  0  0  0  0  0  0  0  0  0  0  0
  -16.1295    8.2263   -9.1010 C   0  0  0  0  0  0  0  0  0  0  0  0
  -17.2230    7.4471   -9.4969 C   0  0  0  0  0  0  0  0  0  0  0  0
  -17.2586    6.9599  -10.7953 C   0  0  0  0  0  0  0  0  0  0  0  0
  -18.1943    6.1870  -11.4220 N   0  0  0  0  0  0  0  0  0  0  0  0
  -17.8151    5.9507  -12.6903 C   0  0  0  0  0  0  0  0  0  0  0  0
  -18.5499    5.1495  -13.7247 C   0  0  0  0  0  0  0  0  0  0  0  0
  -16.5868    6.6081  -12.8573 C   0  0  0  0  0  0  0  0  0  0  0  0
  -15.8677    6.5480  -14.1610 C   0  0  0  0  0  0  0  0  0  0  0  0
  -15.1912    5.2208  -14.2710 C   0  0  0  0  0  0  0  0  0  0  0  0
  -15.3071    4.4675  -13.2506 O   0  0  0  0  0  0  0  0  0  0  0  0
  -14.4730    4.8203  -15.4182 N   0  0  0  0  0  0  0  0  0  0  0  0
  -13.8145    3.5197  -15.4868 C   0  0  2  0  0  0  0  0  0  0  0  0
  -12.3700    3.6795  -15.7699 C   0  0  0  0  0  0  0  0  0  0  0  0
  -11.9757    4.3639  -17.0236 C   0  0  0  0  0  0  0  0  0  0  0  0
  -12.4799    3.6259  -18.2277 C   0  0  0  0  0  0  0  0  0  0  0  0
  -12.0668    4.2958  -19.5194 C   0  0  0  0  0  0  0  0  0  0  0  0
  -10.6049    4.4198  -19.7115 C   0  0  0  0  0  0  0  0  0  0  0  0
   -9.9583    3.0955  -19.7502 C   0  0  0  0  0  0  0  0  0  0  0  0
  -10.5249    1.9943  -19.6881 O   0  0  0  0  0  0  0  0  0  0  0  0
   -8.5296    3.0811  -19.8722 N   0  0  0  0  0  0  0  0  0  0  0  0
   -7.8362    1.9254  -19.9174 O   0  0  0  0  0  0  0  0  0  0  0  0
  -14.5459    2.5275  -16.2943 C   0  0  0  0  0  0  0  0  0  0  0  0
  -15.6977    2.7646  -16.8057 O   0  0  0  0  0  0  0  0  0  0  0  0
  -13.9330    1.2612  -16.5025 N   0  0  0  0  0  0  0  0  0  0  0  0
  -14.6543    0.2740  -17.2962 C   0  0  0  0  0  0  0  0  0  0  0  0
  -13.8618   -0.9894  -17.4212 C   0  0  0  0  0  0  0  0  0  0  0  0
  -13.5235   -1.6679  -16.1758 C   0  0  0  0  0  0  0  0  0  0  0  0
  -14.2992   -2.4391  -15.3385 C   0  0  0  0  0  0  0  0  0  0  0  0
  -15.6875   -2.8308  -15.4201 C   0  0  0  0  0  0  0  0  0  0  0  0
  -16.2336   -3.5164  -14.3264 C   0  0  0  0  0  0  0  0  0  0  0  0
  -17.5474   -3.9369  -14.3502 C   0  0  0  0  0  0  0  0  0  0  0  0
  -18.3865   -3.7210  -15.4118 C   0  0  0  0  0  0  0  0  0  0  0  0
  -17.8675   -3.0511  -16.4913 C   0  0  0  0  0  0  0  0  0  0  0  0
  -16.5362   -2.6261  -16.4652 C   0  0  0  0  0  0  0  0  0  0  0  0
  -13.4960   -2.8121  -14.3086 N   0  0  0  0  0  0  0  0  0  0  0  0
  -12.2677   -2.3307  -14.4391 C   0  0  0  0  0  0  0  0  0  0  0  0
  -11.1261   -2.4381  -13.6684 C   0  0  0  0  0  0  0  0  0  0  0  0
   -9.9526   -1.8341  -14.0347 C   0  0  0  0  0  0  0  0  0  0  0  0
   -9.9021   -1.1008  -15.1975 C   0  0  0  0  0  0  0  0  0  0  0  0
  -11.0559   -1.0070  -15.9515 C   0  0  0  0  0  0  0  0  0  0  0  0
  -12.2444   -1.6067  -15.5998 C   0  0  0  0  0  0  0  0  0  0  0  0
  -16.2362    7.2354  -11.6867 C   0  0  0  0  0  0  0  0  0  0  0  0
  -15.1496    8.0024  -11.3145 C   0  0  0  0  0  0  0  0  0  0  0  0
  1  2  1  0
  2  3  1  0
  3  4  2  0
  4  5  1  0
  5  6  2  0
  6  7  1  0
  7  8  1  0
  8  9  1  0
  8 10  2  0
 10 11  1  0
 11 12  1  0
 12 13  2  0
 12 14  1  0
 14 15  1  0
 15 16  1  6
 16 17  1  0
 17 18  1  0
 18 19  1  0
 19 20  1  0
 20 21  1  0
 21 22  2  0
 21 23  1  0
 23 24  1  0
 15 25  1  0
 25 26  2  0
 25 27  1  0
 27 28  1  0
 28 29  1  0
 29 30  1  0
 30 31  2  0
 31 32  1  0
 32 33  2  0
 33 34  1  0
 34 35  2  0
 35 36  1  0
 36 37  2  0
 31 38  1  0
 38 39  1  0
 39 40  2  0
 40 41  1  0
 41 42  2  0
 42 43  1  0
 43 44  2  0
 10 45  1  0
 45 46  2  0
 46  3  1  0
 45  6  1  0
 44 30  1  0
 37 32  1  0
 44 39  1  0
M  END
>  <shape_align_shape_tanimoto>  (3) 
0.54131354604351223

>  <shape_align_color_tanimoto>  (3) 
0.068135483553408607

>  <metric>  (3) 
combo

>  <metric_score>  (3) 
0.305

>  <template_pid>  (3) 
2V5X

>  <template_shape_score>  (3) 
0.541

>  <template_color_score>  (3) 
0.068

>  <template_combo_score>  (3) 
0.305

$$$$
