6E3M_shape_pose
     RDKit          3D

 20 21  0  0  0  0  0  0  0  0999 V2000
   -6.9623   -7.4825   24.7779 O   0  0  0  0  0  0  0  0  0  0  0  0
   -5.9133   -7.5161   24.0910 C   0  0  0  0  0  0  0  0  0  0  0  0
   -5.0030   -6.4575   24.1648 O   0  0  0  0  0  0  0  0  0  0  0  0
   -5.6637   -8.6737   23.2196 C   0  0  0  0  0  0  0  0  0  0  0  0
   -4.5022   -8.6892   22.4726 C   0  0  0  0  0  0  0  0  0  0  0  0
   -4.2803   -9.7851   21.6568 C   0  0  0  0  0  0  0  0  0  0  0  0
   -5.2293  -10.8127   21.6265 C   0  0  0  0  0  0  0  0  0  0  0  0
   -6.3794  -10.7662   22.3854 C   0  0  0  0  0  0  0  0  0  0  0  0
   -7.3048  -11.8880   22.2821 C   0  0  0  0  0  0  0  0  0  0  0  0
   -8.4879  -11.9659   22.9852 C   0  0  0  0  0  0  0  0  0  0  0  0
   -9.3245  -13.0541   22.8461 C   0  0  0  0  0  0  0  0  0  0  0  0
  -10.5272  -13.1601   23.5444 O   0  0  0  0  0  0  0  0  0  0  0  0
   -8.9675  -14.0759   21.9902 C   0  0  0  0  0  0  0  0  0  0  0  0
   -9.7469  -15.1944   21.7962 O   0  0  0  0  0  0  0  0  0  0  0  0
   -7.7806  -13.9835   21.2936 C   0  0  0  0  0  0  0  0  0  0  0  0
   -7.3569  -15.0371   20.3758 C   0  0  0  0  0  0  0  0  0  0  0  0
   -6.2641  -14.8985   19.7675 O   0  0  0  0  0  0  0  0  0  0  0  0
   -8.1789  -16.1487   20.2131 O   0  0  0  0  0  0  0  0  0  0  0  0
   -6.9750  -12.8942   21.4530 N   0  0  0  0  0  0  0  0  0  0  0  0
   -6.5943   -9.6730   23.1951 C   0  0  0  0  0  0  0  0  0  0  0  0
  1  2  2  0
  2  3  1  0
  2  4  1  0
  4  5  2  0
  5  6  1  0
  6  7  2  0
  7  8  1  0
  8  9  1  0
  9 10  2  0
 10 11  1  0
 11 12  1  0
 11 13  2  0
 13 14  1  0
 13 15  1  0
 15 16  1  0
 16 17  2  0
 16 18  1  0
 15 19  2  0
  8 20  2  0
 20  4  1  0
 19  9  1  0
M  CHG  2   3  -1  18  -1
M  END
>  <shape_align_shape_tanimoto>  (1) 
0.73460694507805535

>  <shape_align_color_tanimoto>  (1) 
0.08772416180719296

>  <metric>  (1) 
shape

>  <metric_score>  (1) 
0.735

>  <template_pid>  (1) 
6E3M

>  <template_shape_score>  (1) 
0.735

>  <template_color_score>  (1) 
0.088

>  <template_combo_score>  (1) 
0.411

$$$$
6E3M_color_pose
     RDKit          3D

 20 21  0  0  0  0  0  0  0  0999 V2000
   -5.6179   -6.6184   24.4679 O   0  0  0  0  0  0  0  0  0  0  0  0
   -6.3131   -7.6539   24.2600 C   0  0  0  0  0  0  0  0  0  0  0  0
   -7.5353   -7.8612   24.8839 O   0  0  0  0  0  0  0  0  0  0  0  0
   -5.8394   -8.6853   23.3362 C   0  0  0  0  0  0  0  0  0  0  0  0
   -4.6294   -8.5377   22.6832 C   0  0  0  0  0  0  0  0  0  0  0  0
   -4.1715   -9.5029   21.8098 C   0  0  0  0  0  0  0  0  0  0  0  0
   -4.9230  -10.6320   21.5791 C   0  0  0  0  0  0  0  0  0  0  0  0
   -6.1334  -10.8129   22.2119 C   0  0  0  0  0  0  0  0  0  0  0  0
   -6.9796  -11.9841   22.0136 C   0  0  0  0  0  0  0  0  0  0  0  0
   -6.6495  -13.0252   21.1722 C   0  0  0  0  0  0  0  0  0  0  0  0
   -7.4569  -14.1333   20.9887 C   0  0  0  0  0  0  0  0  0  0  0  0
   -7.1244  -15.1691   20.1491 O   0  0  0  0  0  0  0  0  0  0  0  0
   -8.6557  -14.2133   21.6763 C   0  0  0  0  0  0  0  0  0  0  0  0
   -9.4919  -15.3168   21.5133 O   0  0  0  0  0  0  0  0  0  0  0  0
   -8.9694  -13.1720   22.5077 C   0  0  0  0  0  0  0  0  0  0  0  0
  -10.2247  -13.2109   23.2553 C   0  0  0  0  0  0  0  0  0  0  0  0
  -11.0153  -14.1860   23.1431 O   0  0  0  0  0  0  0  0  0  0  0  0
  -10.5946  -12.1832   24.1129 O   0  0  0  0  0  0  0  0  0  0  0  0
   -8.1693  -12.1114   22.6665 N   0  0  0  0  0  0  0  0  0  0  0  0
   -6.5625   -9.8340   23.0760 C   0  0  0  0  0  0  0  0  0  0  0  0
  1  2  2  0
  2  3  1  0
  2  4  1  0
  4  5  2  0
  5  6  1  0
  6  7  2  0
  7  8  1  0
  8  9  1  0
  9 10  2  0
 10 11  1  0
 11 12  1  0
 11 13  2  0
 13 14  1  0
 13 15  1  0
 15 16  1  0
 16 17  2  0
 16 18  1  0
 15 19  2  0
  8 20  2  0
 20  4  1  0
 19  9  1  0
M  CHG  2   3  -1  18  -1
M  END
>  <shape_align_shape_tanimoto>  (2) 
0.72087611477835378

>  <shape_align_color_tanimoto>  (2) 
0.14689389441613226

>  <metric>  (2) 
color

>  <metric_score>  (2) 
0.147

>  <template_pid>  (2) 
6E3M

>  <template_shape_score>  (2) 
0.721

>  <template_color_score>  (2) 
0.147

>  <template_combo_score>  (2) 
0.434

$$$$
6E3M_combo_pose
     RDKit          3D

 20 21  0  0  0  0  0  0  0  0999 V2000
   -7.4086   -7.9101   24.7861 O   0  0  0  0  0  0  0  0  0  0  0  0
   -6.3032   -7.7054   24.2283 C   0  0  0  0  0  0  0  0  0  0  0  0
   -5.5353   -6.5598   24.4588 O   0  0  0  0  0  0  0  0  0  0  0  0
   -5.7920   -8.7054   23.2959 C   0  0  0  0  0  0  0  0  0  0  0  0
   -4.5832   -8.5358   22.6524 C   0  0  0  0  0  0  0  0  0  0  0  0
   -4.1831   -9.5336   21.7902 C   0  0  0  0  0  0  0  0  0  0  0  0
   -4.9507  -10.6682   21.5662 C   0  0  0  0  0  0  0  0  0  0  0  0
   -6.1586  -10.8426   22.2062 C   0  0  0  0  0  0  0  0  0  0  0  0
   -7.0114  -12.0088   22.0155 C   0  0  0  0  0  0  0  0  0  0  0  0
   -6.6689  -13.0389   21.1691 C   0  0  0  0  0  0  0  0  0  0  0  0
   -7.4771  -14.1569   20.9806 C   0  0  0  0  0  0  0  0  0  0  0  0
   -7.0994  -15.1903   20.1104 O   0  0  0  0  0  0  0  0  0  0  0  0
   -8.6635  -14.2117   21.6810 C   0  0  0  0  0  0  0  0  0  0  0  0
   -9.5099  -15.3071   21.5300 O   0  0  0  0  0  0  0  0  0  0  0  0
   -8.9636  -13.1596   22.5147 C   0  0  0  0  0  0  0  0  0  0  0  0
  -10.2366  -13.2231   23.2633 C   0  0  0  0  0  0  0  0  0  0  0  0
  -11.0237  -14.2019   23.1474 O   0  0  0  0  0  0  0  0  0  0  0  0
  -10.6029  -12.1916   24.1254 O   0  0  0  0  0  0  0  0  0  0  0  0
   -8.1742  -12.0873   22.6867 N   0  0  0  0  0  0  0  0  0  0  0  0
   -6.5490   -9.8333   23.0696 C   0  0  0  0  0  0  0  0  0  0  0  0
  1  2  2  0
  2  3  1  0
  2  4  1  0
  4  5  2  0
  5  6  1  0
  6  7  2  0
  7  8  1  0
  8  9  1  0
  9 10  2  0
 10 11  1  0
 11 12  1  0
 11 13  2  0
 13 14  1  0
 13 15  1  0
 15 16  1  0
 16 17  2  0
 16 18  1  0
 15 19  2  0
  8 20  2  0
 20  4  1  0
 19  9  1  0
M  CHG  2   3  -1  18  -1
M  END
>  <shape_align_shape_tanimoto>  (3) 
0.72282758762297827

>  <shape_align_color_tanimoto>  (3) 
0.1464230410536598

>  <metric>  (3) 
combo

>  <metric_score>  (3) 
0.435

>  <template_pid>  (3) 
6E3M

>  <template_shape_score>  (3) 
0.723

>  <template_color_score>  (3) 
0.146

>  <template_combo_score>  (3) 
0.435

$$$$
