2XOG_shape_pose
     RDKit          3D

 40 44  0  0  0  0  0  0  0  0999 V2000
  -17.1991   -5.0983    3.6525 N   0  0  0  0  0  0  0  0  0  0  0  0
  -18.5154   -4.5166    3.6373 C   0  0  0  0  0  0  0  0  0  0  0  0
  -19.2449   -4.4736    4.7725 N   0  0  0  0  0  0  0  0  0  0  0  0
  -20.4858   -3.9264    4.7622 C   0  0  0  0  0  0  0  0  0  0  0  0
  -20.9842   -3.4278    3.6163 N   0  0  0  0  0  0  0  0  0  0  0  0
  -20.2603   -3.4651    2.4676 C   0  0  0  0  0  0  0  0  0  0  0  0
  -18.9825   -4.0177    2.4339 C   0  0  0  0  0  0  0  0  0  0  0  0
  -18.5156   -3.9167    1.1817 N   0  0  0  0  0  0  0  0  0  0  0  0
  -19.4742   -3.3169    0.4489 C   0  0  0  0  0  0  0  0  0  0  0  0
  -20.5392   -3.0364    1.2140 N   0  0  0  0  0  0  0  0  0  0  0  0
  -21.7960   -2.4015    0.8707 C   0  0  2  0  0  0  0  0  0  0  0  0
  -21.6894   -1.7398   -0.3479 O   0  0  0  0  0  0  0  0  0  0  0  0
  -22.5966   -0.7130   -0.2474 C   0  0  2  0  0  0  0  0  0  0  0  0
  -22.6648    0.2087   -1.4240 C   0  0  1  0  0  0  0  0  0  0  0  0
  -23.7050    1.1328   -1.1119 O   0  0  0  0  0  0  0  0  0  0  0  0
  -21.4596    0.8718   -1.7375 N   0  0  0  0  0  0  0  0  0  0  0  0
  -20.8406    0.7240   -3.2912 S   0  0  0  0  0  0  0  0  0  0  0  0
  -21.7403    1.3473   -4.3302 O   0  0  0  0  0  0  0  0  0  0  0  0
  -19.5660    1.5741   -3.3507 O   0  0  0  0  0  0  0  0  0  0  0  0
  -20.4009   -0.8652   -3.8522 C   0  0  0  0  0  0  0  0  0  0  0  0
  -21.4584   -1.8916   -3.9556 C   0  0  1  0  0  0  0  0  0  0  0  0
  -22.5761   -1.4884   -4.9209 C   0  0  1  0  0  0  0  0  0  0  0  0
  -22.1099   -0.6773   -5.9283 O   0  0  0  0  0  0  0  0  0  0  0  0
  -22.8930   -2.8380   -5.5813 C   0  0  2  0  0  0  0  0  0  0  0  0
  -24.3024   -3.1651   -5.4816 N   0  0  0  0  0  0  0  0  0  0  0  0
  -24.6559   -3.9878   -4.4663 C   0  0  0  0  0  0  0  0  0  0  0  0
  -25.9651   -4.3576   -4.2853 C   0  0  0  0  0  0  0  0  0  0  0  0
  -26.8884   -3.8476   -5.1881 C   0  0  0  0  0  0  0  0  0  0  0  0
  -28.0989   -4.1736   -5.0420 O   0  0  0  0  0  0  0  0  0  0  0  0
  -26.4901   -3.0275   -6.1891 N   0  0  0  0  0  0  0  0  0  0  0  0
  -25.1970   -2.6721   -6.3547 C   0  0  0  0  0  0  0  0  0  0  0  0
  -24.8461   -1.9109   -7.2883 O   0  0  0  0  0  0  0  0  0  0  0  0
  -22.0990   -3.7833   -4.9371 O   0  0  0  0  0  0  0  0  0  0  0  0
  -20.8932   -3.0651   -4.7883 C   0  0  2  0  0  0  0  0  0  0  0  0
  -19.8621   -3.8605   -4.0760 C   0  0  0  0  0  0  0  0  0  0  0  0
  -18.6702   -3.1574   -3.9827 O   0  0  0  0  0  0  0  0  0  0  0  0
  -22.1786   -0.0669    1.0385 C   0  0  1  0  0  0  0  0  0  0  0  0
  -23.1793    0.7966    1.4707 O   0  0  0  0  0  0  0  0  0  0  0  0
  -22.0854   -1.3233    1.9178 C   0  0  1  0  0  0  0  0  0  0  0  0
  -23.3505   -1.5455    2.5038 O   0  0  0  0  0  0  0  0  0  0  0  0
  1  2  1  0
  2  3  2  0
  3  4  1  0
  4  5  2  0
  5  6  1  0
  6  7  2  0
  7  8  1  0
  8  9  2  0
  9 10  1  0
 11 10  1  1
 11 12  1  0
 13 12  1  6
 13 14  1  0
 14 15  1  1
 14 16  1  0
 16 17  1  0
 17 18  2  0
 17 19  2  0
 17 20  1  0
 21 20  1  6
 21 22  1  0
 22 23  1  6
 22 24  1  0
 24 25  1  1
 25 26  1  0
 26 27  2  0
 27 28  1  0
 28 29  2  0
 28 30  1  0
 30 31  1  0
 31 32  2  0
 24 33  1  0
 33 34  1  0
 34 35  1  1
 35 36  1  0
 13 37  1  0
 37 38  1  1
 37 39  1  0
 39 40  1  6
  7  2  1  0
 39 11  1  0
 10  6  1  0
 34 21  1  0
 31 25  1  0
M  END
>  <shape_align_shape_tanimoto>  (1) 
0.55085784393479409

>  <shape_align_color_tanimoto>  (1) 
0.079052014052914218

>  <metric>  (1) 
shape

>  <metric_score>  (1) 
0.551

>  <template_pid>  (1) 
2XOG

>  <template_shape_score>  (1) 
0.551

>  <template_color_score>  (1) 
0.079

>  <template_combo_score>  (1) 
0.315

$$$$
2XOG_color_pose
     RDKit          3D

 40 44  0  0  0  0  0  0  0  0999 V2000
  -17.8403   -5.0443    3.6041 N   0  0  0  0  0  0  0  0  0  0  0  0
  -18.3827   -4.2702    2.5401 C   0  0  0  0  0  0  0  0  0  0  0  0
  -17.6739   -4.0198    1.4232 N   0  0  0  0  0  0  0  0  0  0  0  0
  -18.1897   -3.2833    0.4099 C   0  0  0  0  0  0  0  0  0  0  0  0
  -19.4348   -2.7928    0.5224 N   0  0  0  0  0  0  0  0  0  0  0  0
  -20.1970   -2.9926    1.5850 C   0  0  0  0  0  0  0  0  0  0  0  0
  -19.6629   -3.7509    2.6258 C   0  0  0  0  0  0  0  0  0  0  0  0
  -20.6162   -3.8008    3.5597 N   0  0  0  0  0  0  0  0  0  0  0  0
  -21.6809   -3.1208    3.1390 C   0  0  0  0  0  0  0  0  0  0  0  0
  -21.4462   -2.6003    1.8979 N   0  0  0  0  0  0  0  0  0  0  0  0
  -22.3777   -1.8054    1.1369 C   0  0  2  0  0  0  0  0  0  0  0  0
  -22.4672   -2.1749   -0.2051 O   0  0  0  0  0  0  0  0  0  0  0  0
  -22.7678   -1.0390   -0.8904 C   0  0  2  0  0  0  0  0  0  0  0  0
  -22.7780   -1.0330   -2.3436 C   0  0  1  0  0  0  0  0  0  0  0  0
  -23.1038    0.3761   -2.6549 O   0  0  0  0  0  0  0  0  0  0  0  0
  -21.6244   -1.3546   -3.1006 N   0  0  0  0  0  0  0  0  0  0  0  0
  -21.8618   -2.0993   -4.5968 S   0  0  0  0  0  0  0  0  0  0  0  0
  -22.7877   -1.1712   -5.4030 O   0  0  0  0  0  0  0  0  0  0  0  0
  -20.5816   -2.0945   -5.4310 O   0  0  0  0  0  0  0  0  0  0  0  0
  -22.6233   -3.6492   -4.5784 C   0  0  0  0  0  0  0  0  0  0  0  0
  -21.9478   -4.7975   -3.9577 C   0  0  1  0  0  0  0  0  0  0  0  0
  -21.5816   -4.7510   -2.5185 C   0  0  1  0  0  0  0  0  0  0  0  0
  -20.7891   -3.7031   -2.1597 O   0  0  0  0  0  0  0  0  0  0  0  0
  -22.9198   -4.8664   -1.8885 C   0  0  2  0  0  0  0  0  0  0  0  0
  -22.9084   -5.3083   -0.5004 N   0  0  0  0  0  0  0  0  0  0  0  0
  -21.7829   -5.6333    0.1558 C   0  0  0  0  0  0  0  0  0  0  0  0
  -21.9189   -6.0465    1.4650 C   0  0  0  0  0  0  0  0  0  0  0  0
  -23.1440   -6.1293    2.0919 C   0  0  0  0  0  0  0  0  0  0  0  0
  -23.2744   -6.5090    3.2969 O   0  0  0  0  0  0  0  0  0  0  0  0
  -24.2431   -5.7887    1.3816 N   0  0  0  0  0  0  0  0  0  0  0  0
  -24.1020   -5.3886    0.1100 C   0  0  0  0  0  0  0  0  0  0  0  0
  -25.1690   -5.0836   -0.5013 O   0  0  0  0  0  0  0  0  0  0  0  0
  -23.5401   -5.8658   -2.6366 O   0  0  0  0  0  0  0  0  0  0  0  0
  -23.0141   -5.9131   -3.8912 C   0  0  2  0  0  0  0  0  0  0  0  0
  -22.3030   -7.2352   -4.1401 C   0  0  0  0  0  0  0  0  0  0  0  0
  -21.7684   -7.2613   -5.4432 O   0  0  0  0  0  0  0  0  0  0  0  0
  -21.6987   -0.0847   -0.3020 C   0  0  1  0  0  0  0  0  0  0  0  0
  -21.9060    1.2203   -0.6792 O   0  0  0  0  0  0  0  0  0  0  0  0
  -22.0241   -0.3317    1.1788 C   0  0  1  0  0  0  0  0  0  0  0  0
  -23.1796    0.3967    1.4530 O   0  0  0  0  0  0  0  0  0  0  0  0
  1  2  1  0
  2  3  2  0
  3  4  1  0
  4  5  2  0
  5  6  1  0
  6  7  2  0
  7  8  1  0
  8  9  2  0
  9 10  1  0
 11 10  1  6
 11 12  1  0
 13 12  1  6
 13 14  1  0
 14 15  1  1
 14 16  1  0
 16 17  1  0
 17 18  2  0
 17 19  2  0
 17 20  1  0
 21 20  1  1
 21 22  1  0
 22 23  1  6
 22 24  1  0
 24 25  1  1
 25 26  1  0
 26 27  2  0
 27 28  1  0
 28 29  2  0
 28 30  1  0
 30 31  1  0
 31 32  2  0
 24 33  1  0
 33 34  1  0
 34 35  1  1
 35 36  1  0
 13 37  1  0
 37 38  1  6
 37 39  1  0
 39 40  1  6
  7  2  1  0
 39 11  1  0
 10  6  1  0
 34 21  1  0
 31 25  1  0
M  END
>  <shape_align_shape_tanimoto>  (2) 
0.48335699566625584

>  <shape_align_color_tanimoto>  (2) 
0.12094958001845824

>  <metric>  (2) 
color

>  <metric_score>  (2) 
0.121

>  <template_pid>  (2) 
2XOG

>  <template_shape_score>  (2) 
0.483

>  <template_color_score>  (2) 
0.121

>  <template_combo_score>  (2) 
0.302

$$$$
2XOG_combo_pose
     RDKit          3D

 40 44  0  0  0  0  0  0  0  0999 V2000
  -17.1991   -5.0983    3.6525 N   0  0  0  0  0  0  0  0  0  0  0  0
  -18.5154   -4.5166    3.6373 C   0  0  0  0  0  0  0  0  0  0  0  0
  -19.2449   -4.4736    4.7725 N   0  0  0  0  0  0  0  0  0  0  0  0
  -20.4858   -3.9264    4.7622 C   0  0  0  0  0  0  0  0  0  0  0  0
  -20.9842   -3.4278    3.6163 N   0  0  0  0  0  0  0  0  0  0  0  0
  -20.2603   -3.4651    2.4676 C   0  0  0  0  0  0  0  0  0  0  0  0
  -18.9825   -4.0177    2.4339 C   0  0  0  0  0  0  0  0  0  0  0  0
  -18.5156   -3.9167    1.1817 N   0  0  0  0  0  0  0  0  0  0  0  0
  -19.4742   -3.3169    0.4489 C   0  0  0  0  0  0  0  0  0  0  0  0
  -20.5392   -3.0364    1.2140 N   0  0  0  0  0  0  0  0  0  0  0  0
  -21.7960   -2.4015    0.8707 C   0  0  2  0  0  0  0  0  0  0  0  0
  -21.6894   -1.7398   -0.3479 O   0  0  0  0  0  0  0  0  0  0  0  0
  -22.5966   -0.7130   -0.2474 C   0  0  2  0  0  0  0  0  0  0  0  0
  -22.6648    0.2087   -1.4240 C   0  0  1  0  0  0  0  0  0  0  0  0
  -23.7050    1.1328   -1.1119 O   0  0  0  0  0  0  0  0  0  0  0  0
  -21.4596    0.8718   -1.7375 N   0  0  0  0  0  0  0  0  0  0  0  0
  -20.8406    0.7240   -3.2912 S   0  0  0  0  0  0  0  0  0  0  0  0
  -21.7403    1.3473   -4.3302 O   0  0  0  0  0  0  0  0  0  0  0  0
  -19.5660    1.5741   -3.3507 O   0  0  0  0  0  0  0  0  0  0  0  0
  -20.4009   -0.8652   -3.8522 C   0  0  0  0  0  0  0  0  0  0  0  0
  -21.4584   -1.8916   -3.9556 C   0  0  1  0  0  0  0  0  0  0  0  0
  -22.5761   -1.4884   -4.9209 C   0  0  1  0  0  0  0  0  0  0  0  0
  -22.1099   -0.6773   -5.9283 O   0  0  0  0  0  0  0  0  0  0  0  0
  -22.8930   -2.8380   -5.5813 C   0  0  2  0  0  0  0  0  0  0  0  0
  -24.3024   -3.1651   -5.4816 N   0  0  0  0  0  0  0  0  0  0  0  0
  -24.6559   -3.9878   -4.4663 C   0  0  0  0  0  0  0  0  0  0  0  0
  -25.9651   -4.3576   -4.2853 C   0  0  0  0  0  0  0  0  0  0  0  0
  -26.8884   -3.8476   -5.1881 C   0  0  0  0  0  0  0  0  0  0  0  0
  -28.0989   -4.1736   -5.0420 O   0  0  0  0  0  0  0  0  0  0  0  0
  -26.4901   -3.0275   -6.1891 N   0  0  0  0  0  0  0  0  0  0  0  0
  -25.1970   -2.6721   -6.3547 C   0  0  0  0  0  0  0  0  0  0  0  0
  -24.8461   -1.9109   -7.2883 O   0  0  0  0  0  0  0  0  0  0  0  0
  -22.0990   -3.7833   -4.9371 O   0  0  0  0  0  0  0  0  0  0  0  0
  -20.8932   -3.0651   -4.7883 C   0  0  2  0  0  0  0  0  0  0  0  0
  -19.8621   -3.8605   -4.0760 C   0  0  0  0  0  0  0  0  0  0  0  0
  -18.6702   -3.1574   -3.9827 O   0  0  0  0  0  0  0  0  0  0  0  0
  -22.1786   -0.0669    1.0385 C   0  0  1  0  0  0  0  0  0  0  0  0
  -23.1793    0.7966    1.4707 O   0  0  0  0  0  0  0  0  0  0  0  0
  -22.0854   -1.3233    1.9178 C   0  0  1  0  0  0  0  0  0  0  0  0
  -23.3505   -1.5455    2.5038 O   0  0  0  0  0  0  0  0  0  0  0  0
  1  2  1  0
  2  3  2  0
  3  4  1  0
  4  5  2  0
  5  6  1  0
  6  7  2  0
  7  8  1  0
  8  9  2  0
  9 10  1  0
 11 10  1  1
 11 12  1  0
 13 12  1  6
 13 14  1  0
 14 15  1  1
 14 16  1  0
 16 17  1  0
 17 18  2  0
 17 19  2  0
 17 20  1  0
 21 20  1  6
 21 22  1  0
 22 23  1  6
 22 24  1  0
 24 25  1  1
 25 26  1  0
 26 27  2  0
 27 28  1  0
 28 29  2  0
 28 30  1  0
 30 31  1  0
 31 32  2  0
 24 33  1  0
 33 34  1  0
 34 35  1  1
 35 36  1  0
 13 37  1  0
 37 38  1  1
 37 39  1  0
 39 40  1  6
  7  2  1  0
 39 11  1  0
 10  6  1  0
 34 21  1  0
 31 25  1  0
M  END
>  <shape_align_shape_tanimoto>  (3) 
0.55085784393479409

>  <shape_align_color_tanimoto>  (3) 
0.079052014052914218

>  <metric>  (3) 
combo

>  <metric_score>  (3) 
0.315

>  <template_pid>  (3) 
2XOG

>  <template_shape_score>  (3) 
0.551

>  <template_color_score>  (3) 
0.079

>  <template_combo_score>  (3) 
0.315

$$$$
