5FYX_shape_pose
     RDKit          3D

 25 28  0  0  0  0  0  0  0  0999 V2000
   -2.1356    7.1129    2.6427 C   0  0  0  0  0  0  0  0  0  0  0  0
   -1.4044    6.0000    2.0899 N   0  0  1  0  0  0  0  0  0  0  0  0
   -0.6236    5.3205    3.0961 C   0  0  0  0  0  0  0  0  0  0  0  0
    0.0235    4.0944    2.5601 C   0  0  0  0  0  0  0  0  0  0  0  0
   -0.8922    3.1401    1.9546 N   0  0  2  0  0  0  0  0  0  0  0  0
   -0.4440    2.8420    0.6706 N   0  0  0  0  0  0  0  0  0  0  0  0
   -1.3736    2.2800   -0.2224 C   0  0  0  0  0  0  0  0  0  0  0  0
   -1.5438    0.7960   -0.2994 C   0  0  0  0  0  0  0  0  0  0  0  0
   -1.9627    0.1760    0.9418 N   0  0  0  0  0  0  0  0  0  0  0  0
   -1.0096   -0.4052    1.8235 C   0  0  0  0  0  0  0  0  0  0  0  0
    0.3367   -0.4394    1.4674 C   0  0  0  0  0  0  0  0  0  0  0  0
    1.3051   -1.0208    2.2890 C   0  0  0  0  0  0  0  0  0  0  0  0
    0.9669   -1.5878    3.4925 C   0  0  0  0  0  0  0  0  0  0  0  0
   -0.3593   -1.5546    3.8438 C   0  0  0  0  0  0  0  0  0  0  0  0
   -1.3079   -0.9838    3.0365 C   0  0  0  0  0  0  0  0  0  0  0  0
   -2.9784   -1.0259    3.6294 S   0  0  0  0  0  0  0  0  0  0  0  0
   -3.9561   -0.2750    2.3533 C   0  0  0  0  0  0  0  0  0  0  0  0
   -5.3090   -0.2217    2.5773 C   0  0  0  0  0  0  0  0  0  0  0  0
   -6.1663    0.3425    1.6677 C   0  0  0  0  0  0  0  0  0  0  0  0
   -5.6111    0.8523    0.5215 C   0  0  0  0  0  0  0  0  0  0  0  0
   -6.6910    1.5757   -0.6492 Cl  0  0  0  0  0  0  0  0  0  0  0  0
   -4.2304    0.7969    0.2943 C   0  0  0  0  0  0  0  0  0  0  0  0
   -3.3603    0.2236    1.2186 C   0  0  0  0  0  0  0  0  0  0  0  0
   -2.2043    3.6914    2.0375 C   0  0  0  0  0  0  0  0  0  0  0  0
   -2.3359    5.0856    1.4945 C   0  0  0  0  0  0  0  0  0  0  0  0
  2  1  1  1
  2  3  1  0
  3  4  1  0
  4  5  1  0
  5  6  1  6
  6  7  1  0
  7  8  1  0
  8  9  1  0
  9 10  1  0
 10 11  2  0
 11 12  1  0
 12 13  2  0
 13 14  1  0
 14 15  2  0
 15 16  1  0
 16 17  1  0
 17 18  2  0
 18 19  1  0
 19 20  2  0
 20 21  1  0
 20 22  1  0
 22 23  2  0
  5 24  1  0
 24 25  1  0
 25  2  1  0
 23  9  1  0
 15 10  1  0
 23 17  1  0
M  CHG  3   2   1   5   1   6   1
M  END
>  <shape_align_shape_tanimoto>  (1) 
0.21194882568213952

>  <shape_align_color_tanimoto>  (1) 
0.022300883796501355

>  <metric>  (1) 
shape

>  <metric_score>  (1) 
0.212

>  <template_pid>  (1) 
5FYX

>  <template_shape_score>  (1) 
0.212

>  <template_color_score>  (1) 
0.022

>  <template_combo_score>  (1) 
0.117

$$$$
5FYX_color_pose
     RDKit          3D

 25 28  0  0  0  0  0  0  0  0999 V2000
   -0.8387    3.3222    4.2750 C   0  0  0  0  0  0  0  0  0  0  0  0
   -0.9756    4.3103    3.2139 N   0  0  1  0  0  0  0  0  0  0  0  0
    0.2572    4.5535    2.5139 C   0  0  0  0  0  0  0  0  0  0  0  0
    0.5452    3.7000    1.3477 C   0  0  0  0  0  0  0  0  0  0  0  0
   -0.5264    2.7164    1.0773 N   0  0  2  0  0  0  0  0  0  0  0  0
   -0.1747    2.0094   -0.0224 N   0  0  0  0  0  0  0  0  0  0  0  0
   -1.1520    1.3364   -0.8043 C   0  0  0  0  0  0  0  0  0  0  0  0
   -1.5574   -0.0534   -0.3667 C   0  0  0  0  0  0  0  0  0  0  0  0
   -2.1338   -0.1453    0.9440 N   0  0  0  0  0  0  0  0  0  0  0  0
   -3.4818    0.2636    1.1380 C   0  0  0  0  0  0  0  0  0  0  0  0
   -4.2497    0.6678    0.0588 C   0  0  0  0  0  0  0  0  0  0  0  0
   -5.5901    1.0527    0.2028 C   0  0  0  0  0  0  0  0  0  0  0  0
   -6.2008    1.0430    1.4331 C   0  0  0  0  0  0  0  0  0  0  0  0
   -5.4372    0.6408    2.5009 C   0  0  0  0  0  0  0  0  0  0  0  0
   -4.1274    0.2655    2.3569 C   0  0  0  0  0  0  0  0  0  0  0  0
   -3.2908   -0.2405    3.8511 S   0  0  0  0  0  0  0  0  0  0  0  0
   -1.6579   -0.7185    3.3125 C   0  0  0  0  0  0  0  0  0  0  0  0
   -0.8118   -1.1791    4.2802 C   0  0  0  0  0  0  0  0  0  0  0  0
    0.4714   -1.5640    3.9956 C   0  0  0  0  0  0  0  0  0  0  0  0
    0.8815   -1.4697    2.6926 C   0  0  0  0  0  0  0  0  0  0  0  0
    2.5128   -1.9549    2.3095 Cl  0  0  0  0  0  0  0  0  0  0  0  0
    0.0205   -1.0014    1.7097 C   0  0  0  0  0  0  0  0  0  0  0  0
   -1.2883   -0.6083    1.9927 C   0  0  0  0  0  0  0  0  0  0  0  0
   -1.7164    3.4952    1.0057 C   0  0  0  0  0  0  0  0  0  0  0  0
   -2.0899    4.0156    2.3507 C   0  0  0  0  0  0  0  0  0  0  0  0
  2  1  1  1
  2  3  1  0
  3  4  1  0
  4  5  1  0
  5  6  1  6
  6  7  1  0
  7  8  1  0
  8  9  1  0
  9 10  1  0
 10 11  2  0
 11 12  1  0
 12 13  2  0
 13 14  1  0
 14 15  2  0
 15 16  1  0
 16 17  1  0
 17 18  2  0
 18 19  1  0
 19 20  2  0
 20 21  1  0
 20 22  1  0
 22 23  2  0
  5 24  1  0
 24 25  1  0
 25  2  1  0
 23  9  1  0
 15 10  1  0
 23 17  1  0
M  CHG  3   2   1   5   1   6   1
M  END
>  <shape_align_shape_tanimoto>  (2) 
0.19546558529659633

>  <shape_align_color_tanimoto>  (2) 
0.057936811914437801

>  <metric>  (2) 
color

>  <metric_score>  (2) 
0.058

>  <template_pid>  (2) 
5FYX

>  <template_shape_score>  (2) 
0.195

>  <template_color_score>  (2) 
0.058

>  <template_combo_score>  (2) 
0.127

$$$$
5FYX_combo_pose
     RDKit          3D

 25 28  0  0  0  0  0  0  0  0999 V2000
    0.6154    3.5859    4.2056 C   0  0  0  0  0  0  0  0  0  0  0  0
   -0.3050    4.2763    3.3200 N   0  0  1  0  0  0  0  0  0  0  0  0
    0.3844    4.8131    2.1748 C   0  0  0  0  0  0  0  0  0  0  0  0
    0.7094    3.8018    1.1199 C   0  0  0  0  0  0  0  0  0  0  0  0
   -0.2855    2.6988    1.1055 N   0  0  2  0  0  0  0  0  0  0  0  0
   -0.2073    2.1628   -0.1673 N   0  0  0  0  0  0  0  0  0  0  0  0
   -1.3387    1.5642   -0.7333 C   0  0  0  0  0  0  0  0  0  0  0  0
   -1.7358    0.1835   -0.3909 C   0  0  0  0  0  0  0  0  0  0  0  0
   -2.0412   -0.0983    0.9967 N   0  0  0  0  0  0  0  0  0  0  0  0
   -1.0340   -0.5841    1.8712 C   0  0  0  0  0  0  0  0  0  0  0  0
    0.2355   -0.8370    1.3779 C   0  0  0  0  0  0  0  0  0  0  0  0
    1.2657   -1.3301    2.1894 C   0  0  0  0  0  0  0  0  0  0  0  0
    1.0459   -1.5833    3.5225 C   0  0  0  0  0  0  0  0  0  0  0  0
   -0.2172   -1.3286    3.9974 C   0  0  0  0  0  0  0  0  0  0  0  0
   -1.2142   -0.8510    3.2108 C   0  0  0  0  0  0  0  0  0  0  0  0
   -2.7973   -0.5870    3.9802 S   0  0  0  0  0  0  0  0  0  0  0  0
   -3.8604    0.0037    2.6754 C   0  0  0  0  0  0  0  0  0  0  0  0
   -5.1596    0.2767    3.0411 C   0  0  0  0  0  0  0  0  0  0  0  0
   -6.0663    0.7460    2.1310 C   0  0  0  0  0  0  0  0  0  0  0  0
   -5.6259    0.9318    0.8438 C   0  0  0  0  0  0  0  0  0  0  0  0
   -6.7775    1.5316   -0.3272 Cl  0  0  0  0  0  0  0  0  0  0  0  0
   -4.3097    0.6546    0.4757 C   0  0  0  0  0  0  0  0  0  0  0  0
   -3.3805    0.1729    1.4096 C   0  0  0  0  0  0  0  0  0  0  0  0
   -1.5002    3.3344    1.4712 C   0  0  0  0  0  0  0  0  0  0  0  0
   -1.4370    3.4555    3.0018 C   0  0  0  0  0  0  0  0  0  0  0  0
  2  1  1  6
  2  3  1  0
  3  4  1  0
  4  5  1  0
  5  6  1  6
  6  7  1  0
  7  8  1  0
  8  9  1  0
  9 10  1  0
 10 11  2  0
 11 12  1  0
 12 13  2  0
 13 14  1  0
 14 15  2  0
 15 16  1  0
 16 17  1  0
 17 18  2  0
 18 19  1  0
 19 20  2  0
 20 21  1  0
 20 22  1  0
 22 23  2  0
  5 24  1  0
 24 25  1  0
 25  2  1  0
 23  9  1  0
 15 10  1  0
 23 17  1  0
M  CHG  3   2   1   5   1   6   1
M  END
>  <shape_align_shape_tanimoto>  (3) 
0.20428027635020646

>  <shape_align_color_tanimoto>  (3) 
0.049214625242332194

>  <metric>  (3) 
combo

>  <metric_score>  (3) 
0.127

>  <template_pid>  (3) 
5FYX

>  <template_shape_score>  (3) 
0.204

>  <template_color_score>  (3) 
0.049

>  <template_combo_score>  (3) 
0.127

$$$$
