4JJQ_shape_pose
     RDKit          3D

 24 23  0  0  0  0  0  0  0  0999 V2000
   11.1600   19.3398  120.6260 C   0  0  0  0  0  0  0  0  0  0  0  0
   10.0667   18.6804  119.8305 C   0  0  2  0  0  0  0  0  0  0  0  0
   10.2341   19.0681  118.4426 N   0  0  0  0  0  0  0  0  0  0  0  0
    8.7391   19.0992  120.3627 C   0  0  0  0  0  0  0  0  0  0  0  0
    8.5019   18.8073  121.5619 O   0  0  0  0  0  0  0  0  0  0  0  0
    7.7841   19.8009  119.5405 N   0  0  0  0  0  0  0  0  0  0  0  0
    6.5017   20.2243  120.0011 C   0  0  1  0  0  0  0  0  0  0  0  0
    5.5925   19.0581  120.2291 C   0  0  0  0  0  0  0  0  0  0  0  0
    6.0335   18.1538  121.1571 O   0  0  0  0  0  0  0  0  0  0  0  0
    6.5318   21.1917  121.1280 C   0  0  0  0  0  0  0  0  0  0  0  0
    5.3951   21.5254  121.6006 O   0  0  0  0  0  0  0  0  0  0  0  0
    7.6829   21.7470  121.6898 N   0  0  0  0  0  0  0  0  0  0  0  0
    7.5999   22.6657  122.7721 C   0  0  2  0  0  0  0  0  0  0  0  0
    8.0945   24.0045  122.3623 C   0  0  0  0  0  0  0  0  0  0  0  0
    8.1287   24.9986  123.1324 O   0  0  0  0  0  0  0  0  0  0  0  0
    8.5643   24.1961  121.0167 N   0  0  0  0  0  0  0  0  0  0  0  0
    9.0578   25.4594  120.5435 C   0  0  2  0  0  0  0  0  0  0  0  0
    8.1898   26.0534  119.4905 C   0  0  0  0  0  0  0  0  0  0  0  0
    8.4262   27.1200  118.9550 O   0  0  0  0  0  0  0  0  0  0  0  0
   10.4816   25.4264  120.1025 C   0  0  0  0  0  0  0  0  0  0  0  0
   11.3080   25.0451  121.1540 O   0  0  0  0  0  0  0  0  0  0  0  0
    8.3027   22.2334  124.0263 C   0  0  1  0  0  0  0  0  0  0  0  0
    8.0421   23.2757  125.0972 C   0  0  0  0  0  0  0  0  0  0  0  0
    7.7884   21.0354  124.5195 O   0  0  0  0  0  0  0  0  0  0  0  0
  2  1  1  1
  2  3  1  0
  2  4  1  0
  4  5  2  0
  4  6  1  0
  6  7  1  0
  7  8  1  1
  8  9  1  0
  7 10  1  0
 10 11  2  0
 10 12  1  0
 13 12  1  6
 13 14  1  0
 14 15  2  0
 14 16  1  0
 16 17  1  0
 17 18  1  0
 18 19  2  0
 17 20  1  6
 20 21  1  0
 13 22  1  0
 22 23  1  1
 22 24  1  0
M  CHG  1   3   1
M  END
>  <shape_align_shape_tanimoto>  (1) 
0.480631907689478

>  <shape_align_color_tanimoto>  (1) 
0.057425235066977415

>  <metric>  (1) 
shape

>  <metric_score>  (1) 
0.481

>  <template_pid>  (1) 
4JJQ

>  <template_shape_score>  (1) 
0.481

>  <template_color_score>  (1) 
0.057

>  <template_combo_score>  (1) 
0.269

$$$$
4JJQ_color_pose
     RDKit          3D

 24 23  0  0  0  0  0  0  0  0999 V2000
   10.8306   19.1937  118.6924 C   0  0  0  0  0  0  0  0  0  0  0  0
    9.5742   18.7912  117.9715 C   0  0  2  0  0  0  0  0  0  0  0  0
    9.7738   18.9281  116.5545 N   0  0  0  0  0  0  0  0  0  0  0  0
    8.3846   19.5497  118.4539 C   0  0  0  0  0  0  0  0  0  0  0  0
    7.7206   20.1948  117.6023 O   0  0  0  0  0  0  0  0  0  0  0  0
    8.0659   19.5076  119.8231 N   0  0  0  0  0  0  0  0  0  0  0  0
    6.9473   20.1983  120.3907 C   0  0  1  0  0  0  0  0  0  0  0  0
    5.9120   19.3257  121.0117 C   0  0  0  0  0  0  0  0  0  0  0  0
    5.4173   18.4813  120.0506 O   0  0  0  0  0  0  0  0  0  0  0  0
    7.5183   21.2055  121.3402 C   0  0  0  0  0  0  0  0  0  0  0  0
    8.7712   21.2289  121.4307 O   0  0  0  0  0  0  0  0  0  0  0  0
    6.6676   22.0862  122.0957 N   0  0  0  0  0  0  0  0  0  0  0  0
    7.1622   23.0706  123.0105 C   0  0  2  0  0  0  0  0  0  0  0  0
    8.1130   24.0532  122.3752 C   0  0  0  0  0  0  0  0  0  0  0  0
    8.7247   24.8716  123.1017 O   0  0  0  0  0  0  0  0  0  0  0  0
    8.3438   24.0924  120.9774 N   0  0  0  0  0  0  0  0  0  0  0  0
    9.2740   25.0577  120.4276 C   0  0  2  0  0  0  0  0  0  0  0  0
    8.5656   25.9332  119.4301 C   0  0  0  0  0  0  0  0  0  0  0  0
    9.1935   26.8165  118.8553 O   0  0  0  0  0  0  0  0  0  0  0  0
   10.4012   24.4085  119.6913 C   0  0  0  0  0  0  0  0  0  0  0  0
   11.2410   25.4068  119.1998 O   0  0  0  0  0  0  0  0  0  0  0  0
    7.5799   22.5992  124.3465 C   0  0  1  0  0  0  0  0  0  0  0  0
    8.6244   21.5387  124.3890 C   0  0  0  0  0  0  0  0  0  0  0  0
    8.0409   23.6605  125.1349 O   0  0  0  0  0  0  0  0  0  0  0  0
  2  1  1  1
  2  3  1  0
  2  4  1  0
  4  5  2  0
  4  6  1  0
  6  7  1  0
  7  8  1  1
  8  9  1  0
  7 10  1  0
 10 11  2  0
 10 12  1  0
 13 12  1  6
 13 14  1  0
 14 15  2  0
 14 16  1  0
 16 17  1  0
 17 18  1  0
 18 19  2  0
 17 20  1  6
 20 21  1  0
 13 22  1  0
 22 23  1  6
 22 24  1  0
M  CHG  1   3   1
M  END
>  <shape_align_shape_tanimoto>  (2) 
0.46587782809513673

>  <shape_align_color_tanimoto>  (2) 
0.070541046697719156

>  <metric>  (2) 
color

>  <metric_score>  (2) 
0.071

>  <template_pid>  (2) 
4JJQ

>  <template_shape_score>  (2) 
0.466

>  <template_color_score>  (2) 
0.071

>  <template_combo_score>  (2) 
0.268

$$$$
4JJQ_combo_pose
     RDKit          3D

 24 23  0  0  0  0  0  0  0  0999 V2000
    9.8978   18.0384  118.7099 C   0  0  0  0  0  0  0  0  0  0  0  0
   10.0532   18.8538  119.9669 C   0  0  2  0  0  0  0  0  0  0  0  0
   10.6505   18.0768  121.0562 N   0  0  0  0  0  0  0  0  0  0  0  0
    8.6724   19.1887  120.4548 C   0  0  0  0  0  0  0  0  0  0  0  0
    8.3771   18.7563  121.5956 O   0  0  0  0  0  0  0  0  0  0  0  0
    7.7604   19.9410  119.6848 N   0  0  0  0  0  0  0  0  0  0  0  0
    6.4200   20.2896  120.1057 C   0  0  1  0  0  0  0  0  0  0  0  0
    5.6547   19.0244  120.3631 C   0  0  0  0  0  0  0  0  0  0  0  0
    5.6421   18.3120  119.1638 O   0  0  0  0  0  0  0  0  0  0  0  0
    6.4474   21.2432  121.2154 C   0  0  0  0  0  0  0  0  0  0  0  0
    5.3504   21.6275  121.6986 O   0  0  0  0  0  0  0  0  0  0  0  0
    7.6263   21.7796  121.8016 N   0  0  0  0  0  0  0  0  0  0  0  0
    7.6228   22.7157  122.8929 C   0  0  2  0  0  0  0  0  0  0  0  0
    8.1378   24.0175  122.3560 C   0  0  0  0  0  0  0  0  0  0  0  0
    8.2414   25.0238  123.1053 O   0  0  0  0  0  0  0  0  0  0  0  0
    8.5275   24.1782  120.9995 N   0  0  0  0  0  0  0  0  0  0  0  0
    9.0264   25.4215  120.4587 C   0  0  2  0  0  0  0  0  0  0  0  0
    8.1032   25.9125  119.3694 C   0  0  0  0  0  0  0  0  0  0  0  0
    8.3819   26.9573  118.8051 O   0  0  0  0  0  0  0  0  0  0  0  0
   10.3745   25.2926  119.7975 C   0  0  0  0  0  0  0  0  0  0  0  0
   10.7404   26.5671  119.3177 O   0  0  0  0  0  0  0  0  0  0  0  0
    8.3633   22.2917  124.1098 C   0  0  1  0  0  0  0  0  0  0  0  0
    8.1340   23.3709  125.1609 C   0  0  0  0  0  0  0  0  0  0  0  0
    7.8193   21.1290  124.6036 O   0  0  0  0  0  0  0  0  0  0  0  0
  2  1  1  6
  2  3  1  0
  2  4  1  0
  4  5  2  0
  4  6  1  0
  6  7  1  0
  7  8  1  1
  8  9  1  0
  7 10  1  0
 10 11  2  0
 10 12  1  0
 13 12  1  6
 13 14  1  0
 14 15  2  0
 14 16  1  0
 16 17  1  0
 17 18  1  0
 18 19  2  0
 17 20  1  6
 20 21  1  0
 13 22  1  0
 22 23  1  1
 22 24  1  0
M  CHG  1   3   1
M  END
>  <shape_align_shape_tanimoto>  (3) 
0.4779077257148141

>  <shape_align_color_tanimoto>  (3) 
0.064196013481527744

>  <metric>  (3) 
combo

>  <metric_score>  (3) 
0.271

>  <template_pid>  (3) 
4JJQ

>  <template_shape_score>  (3) 
0.478

>  <template_color_score>  (3) 
0.064

>  <template_combo_score>  (3) 
0.271

$$$$
