2VA5_shape_pose
     RDKit          3D

 19 21  0  0  0  0  0  0  0  0999 V2000
   40.8768   -4.8146   10.6504 N   0  0  0  0  0  0  0  0  0  0  0  0
   40.6225   -3.4311   10.8288 C   0  0  0  0  0  0  0  0  0  0  0  0
   39.3613   -2.9999   10.9338 N   0  0  0  0  0  0  0  0  0  0  0  0
   39.0493   -1.6976   11.1048 C   0  0  0  0  0  0  0  0  0  0  0  0
   37.6063   -1.3616   11.2058 C   0  0  0  0  0  0  0  0  0  0  0  0
   37.1483   -1.4138   12.6660 C   0  0  0  0  0  0  0  0  0  0  0  0
   35.6908   -1.0612   12.6495 C   0  0  0  0  0  0  0  0  0  0  0  0
   35.2561    0.2350   12.7668 C   0  0  0  0  0  0  0  0  0  0  0  0
   33.8927    0.4595   12.7406 C   0  0  0  0  0  0  0  0  0  0  0  0
   32.9803   -0.5704   12.6019 C   0  0  0  0  0  0  0  0  0  0  0  0
   31.6020   -0.6514   12.5437 C   0  0  0  0  0  0  0  0  0  0  0  0
   31.2710   -1.9800   12.3954 C   0  0  0  0  0  0  0  0  0  0  0  0
   32.3918   -2.7224   12.3598 N   0  0  0  0  0  0  0  0  0  0  0  0
   33.4147   -1.8822   12.4830 C   0  0  0  0  0  0  0  0  0  0  0  0
   34.7739   -2.0933   12.5105 C   0  0  0  0  0  0  0  0  0  0  0  0
   40.0602   -0.7804   11.1739 C   0  0  0  0  0  0  0  0  0  0  0  0
   41.3544   -1.2472   11.0632 C   0  0  0  0  0  0  0  0  0  0  0  0
   42.3071   -0.4197   11.1238 O   0  0  0  0  0  0  0  0  0  0  0  0
   41.6358   -2.5438   10.8942 N   0  0  0  0  0  0  0  0  0  0  0  0
  1  2  1  0
  2  3  2  0
  3  4  1  0
  4  5  1  0
  5  6  1  0
  6  7  1  0
  7  8  2  0
  8  9  1  0
  9 10  2  0
 10 11  1  0
 11 12  2  0
 12 13  1  0
 13 14  1  0
 14 15  2  0
  4 16  2  0
 16 17  1  0
 17 18  2  0
 17 19  1  0
 19  2  1  0
 15  7  1  0
 14 10  1  0
M  END
>  <shape_align_shape_tanimoto>  (1) 
0.68696442651459699

>  <shape_align_color_tanimoto>  (1) 
0.058828856088835473

>  <metric>  (1) 
shape

>  <metric_score>  (1) 
0.687

>  <template_pid>  (1) 
2VA5

>  <template_shape_score>  (1) 
0.687

>  <template_color_score>  (1) 
0.059

>  <template_combo_score>  (1) 
0.373

$$$$
2VA5_color_pose
     RDKit          3D

 19 21  0  0  0  0  0  0  0  0999 V2000
   42.9246   -0.2735    9.6840 N   0  0  0  0  0  0  0  0  0  0  0  0
   42.0177   -1.0151   10.4975 C   0  0  0  0  0  0  0  0  0  0  0  0
   41.8884   -0.7914   11.8271 N   0  0  0  0  0  0  0  0  0  0  0  0
   41.0142   -1.5162   12.5749 C   0  0  0  0  0  0  0  0  0  0  0  0
   40.8818   -1.2605   14.0342 C   0  0  0  0  0  0  0  0  0  0  0  0
   39.8288   -0.2256   14.2532 C   0  0  0  0  0  0  0  0  0  0  0  0
   38.4902   -0.6150   13.7454 C   0  0  0  0  0  0  0  0  0  0  0  0
   37.6522   -1.2878   14.6308 C   0  0  0  0  0  0  0  0  0  0  0  0
   36.3852   -1.6960   14.2615 C   0  0  0  0  0  0  0  0  0  0  0  0
   35.9663   -1.4163   12.9763 C   0  0  0  0  0  0  0  0  0  0  0  0
   34.7601   -1.7161   12.3755 C   0  0  0  0  0  0  0  0  0  0  0  0
   34.8596   -1.2127   11.0826 C   0  0  0  0  0  0  0  0  0  0  0  0
   36.0790   -0.6356   10.9213 N   0  0  0  0  0  0  0  0  0  0  0  0
   36.7830   -0.7430   12.0640 C   0  0  0  0  0  0  0  0  0  0  0  0
   38.0558   -0.3431   12.4635 C   0  0  0  0  0  0  0  0  0  0  0  0
   40.2562   -2.4889   11.9550 C   0  0  0  0  0  0  0  0  0  0  0  0
   40.3845   -2.7195   10.6040 C   0  0  0  0  0  0  0  0  0  0  0  0
   39.7082   -3.6015    9.9991 O   0  0  0  0  0  0  0  0  0  0  0  0
   41.2579   -1.9781    9.9209 N   0  0  0  0  0  0  0  0  0  0  0  0
  1  2  1  0
  2  3  2  0
  3  4  1  0
  4  5  1  0
  5  6  1  0
  6  7  1  0
  7  8  2  0
  8  9  1  0
  9 10  2  0
 10 11  1  0
 11 12  2  0
 12 13  1  0
 13 14  1  0
 14 15  2  0
  4 16  2  0
 16 17  1  0
 17 18  2  0
 17 19  1  0
 19  2  1  0
 15  7  1  0
 14 10  1  0
M  END
>  <shape_align_shape_tanimoto>  (2) 
0.51865052129879896

>  <shape_align_color_tanimoto>  (2) 
0.12626322181402022

>  <metric>  (2) 
color

>  <metric_score>  (2) 
0.126

>  <template_pid>  (2) 
2VA5

>  <template_shape_score>  (2) 
0.519

>  <template_color_score>  (2) 
0.126

>  <template_combo_score>  (2) 
0.322

$$$$
2VA5_combo_pose
     RDKit          3D

 19 21  0  0  0  0  0  0  0  0999 V2000
   41.0684   -4.6721   10.4848 N   0  0  0  0  0  0  0  0  0  0  0  0
   40.7334   -3.3194   10.8323 C   0  0  0  0  0  0  0  0  0  0  0  0
   39.4314   -2.9148   10.7702 N   0  0  0  0  0  0  0  0  0  0  0  0
   39.0629   -1.6655   11.0830 C   0  0  0  0  0  0  0  0  0  0  0  0
   37.6194   -1.2383   11.0079 C   0  0  0  0  0  0  0  0  0  0  0  0
   37.0519   -1.5319   12.3786 C   0  0  0  0  0  0  0  0  0  0  0  0
   35.6396   -1.1884   12.5337 C   0  0  0  0  0  0  0  0  0  0  0  0
   35.2520    0.0606   12.9661 C   0  0  0  0  0  0  0  0  0  0  0  0
   33.9087    0.3975   13.1171 C   0  0  0  0  0  0  0  0  0  0  0  0
   32.9590   -0.5718   12.8163 C   0  0  0  0  0  0  0  0  0  0  0  0
   31.5778   -0.5795   12.8520 C   0  0  0  0  0  0  0  0  0  0  0  0
   31.1740   -1.8396   12.4379 C   0  0  0  0  0  0  0  0  0  0  0  0
   32.2729   -2.5915   12.1536 N   0  0  0  0  0  0  0  0  0  0  0  0
   33.3536   -1.8218   12.3834 C   0  0  0  0  0  0  0  0  0  0  0  0
   34.6862   -2.1651   12.2305 C   0  0  0  0  0  0  0  0  0  0  0  0
   40.0516   -0.7867   11.4754 C   0  0  0  0  0  0  0  0  0  0  0  0
   41.3882   -1.1721   11.5479 C   0  0  0  0  0  0  0  0  0  0  0  0
   42.2675   -0.3367   11.9125 O   0  0  0  0  0  0  0  0  0  0  0  0
   41.6683   -2.4354   11.2188 N   0  0  0  0  0  0  0  0  0  0  0  0
  1  2  1  0
  2  3  2  0
  3  4  1  0
  4  5  1  0
  5  6  1  0
  6  7  1  0
  7  8  2  0
  8  9  1  0
  9 10  2  0
 10 11  1  0
 11 12  2  0
 12 13  1  0
 13 14  1  0
 14 15  2  0
  4 16  2  0
 16 17  1  0
 17 18  2  0
 17 19  1  0
 19  2  1  0
 15  7  1  0
 14 10  1  0
M  END
>  <shape_align_shape_tanimoto>  (3) 
0.6823114775079967

>  <shape_align_color_tanimoto>  (3) 
0.064293466377851244

>  <metric>  (3) 
combo

>  <metric_score>  (3) 
0.373

>  <template_pid>  (3) 
2VA5

>  <template_shape_score>  (3) 
0.682

>  <template_color_score>  (3) 
0.064

>  <template_combo_score>  (3) 
0.373

$$$$
