4AMX_shape_pose
     RDKit          3D

 12 12  0  0  0  0  0  0  0  0999 V2000
   24.0770  -64.8133   19.0527 O   0  0  0  0  0  0  0  0  0  0  0  0
   24.9220  -63.7591   18.7925 C   0  0  0  0  0  0  0  0  0  0  0  0
   25.3598  -63.8258   17.3468 C   0  0  1  0  0  0  0  0  0  0  0  0
   26.0580  -64.9832   17.1604 F   0  0  0  0  0  0  0  0  0  0  0  0
   24.2144  -63.7451   16.5430 O   0  0  0  0  0  0  0  0  0  0  0  0
   23.8326  -62.4104   16.4262 C   0  0  0  0  0  0  0  0  0  0  0  0
   24.7439  -61.8321   15.3384 C   0  0  2  0  0  0  0  0  0  0  0  0
   24.2161  -62.2042   14.1057 O   0  0  0  0  0  0  0  0  0  0  0  0
   26.1400  -62.3881   15.5449 C   0  0  1  0  0  0  0  0  0  0  0  0
   27.0152  -61.4601   15.0438 O   0  0  0  0  0  0  0  0  0  0  0  0
   26.2964  -62.6638   17.0174 C   0  0  2  0  0  0  0  0  0  0  0  0
   27.5751  -62.9514   17.4150 O   0  0  0  0  0  0  0  0  0  0  0  0
  1  2  1  0
  2  3  1  0
  3  4  1  1
  3  5  1  0
  5  6  1  0
  6  7  1  0
  7  8  1  6
  7  9  1  0
  9 10  1  1
  9 11  1  0
 11 12  1  6
 11  3  1  0
M  END
>  <shape_align_shape_tanimoto>  (1) 
0.54988862679038664

>  <shape_align_color_tanimoto>  (1) 
0.12382723729539848

>  <metric>  (1) 
shape

>  <metric_score>  (1) 
0.550

>  <template_pid>  (1) 
4AMX

>  <template_shape_score>  (1) 
0.550

>  <template_color_score>  (1) 
0.124

>  <template_combo_score>  (1) 
0.337

$$$$
4AMX_color_pose
     RDKit          3D

 12 12  0  0  0  0  0  0  0  0999 V2000
   28.1681  -60.7406   18.1814 O   0  0  0  0  0  0  0  0  0  0  0  0
   27.8005  -62.0556   18.4600 C   0  0  0  0  0  0  0  0  0  0  0  0
   27.4684  -62.8296   17.1878 C   0  0  1  0  0  0  0  0  0  0  0  0
   28.6951  -62.9047   16.5124 F   0  0  0  0  0  0  0  0  0  0  0  0
   27.1020  -64.1260   17.4118 O   0  0  0  0  0  0  0  0  0  0  0  0
   25.8145  -64.3328   17.8326 C   0  0  0  0  0  0  0  0  0  0  0  0
   24.8154  -63.3060   17.3729 C   0  0  2  0  0  0  0  0  0  0  0  0
   23.5473  -63.8404   17.1878 O   0  0  0  0  0  0  0  0  0  0  0  0
   25.2890  -62.8260   16.0154 C   0  0  1  0  0  0  0  0  0  0  0  0
   24.3533  -62.0451   15.3535 O   0  0  0  0  0  0  0  0  0  0  0  0
   26.5606  -62.0282   16.3129 C   0  0  2  0  0  0  0  0  0  0  0  0
   27.1612  -61.6040   15.1302 O   0  0  0  0  0  0  0  0  0  0  0  0
  1  2  1  0
  2  3  1  0
  3  4  1  6
  3  5  1  0
  5  6  1  0
  6  7  1  0
  7  8  1  6
  7  9  1  0
  9 10  1  1
  9 11  1  0
 11 12  1  6
 11  3  1  0
M  END
>  <shape_align_shape_tanimoto>  (2) 
0.53595632495704482

>  <shape_align_color_tanimoto>  (2) 
0.16261573098281237

>  <metric>  (2) 
color

>  <metric_score>  (2) 
0.163

>  <template_pid>  (2) 
4AMX

>  <template_shape_score>  (2) 
0.536

>  <template_color_score>  (2) 
0.163

>  <template_combo_score>  (2) 
0.349

$$$$
4AMX_combo_pose
     RDKit          3D

 12 12  0  0  0  0  0  0  0  0999 V2000
   28.1681  -60.7406   18.1814 O   0  0  0  0  0  0  0  0  0  0  0  0
   27.8005  -62.0556   18.4600 C   0  0  0  0  0  0  0  0  0  0  0  0
   27.4684  -62.8296   17.1878 C   0  0  1  0  0  0  0  0  0  0  0  0
   28.6951  -62.9047   16.5124 F   0  0  0  0  0  0  0  0  0  0  0  0
   27.1020  -64.1260   17.4118 O   0  0  0  0  0  0  0  0  0  0  0  0
   25.8145  -64.3328   17.8326 C   0  0  0  0  0  0  0  0  0  0  0  0
   24.8154  -63.3060   17.3729 C   0  0  2  0  0  0  0  0  0  0  0  0
   23.5473  -63.8404   17.1878 O   0  0  0  0  0  0  0  0  0  0  0  0
   25.2890  -62.8260   16.0154 C   0  0  1  0  0  0  0  0  0  0  0  0
   24.3533  -62.0451   15.3535 O   0  0  0  0  0  0  0  0  0  0  0  0
   26.5606  -62.0282   16.3129 C   0  0  2  0  0  0  0  0  0  0  0  0
   27.1612  -61.6040   15.1302 O   0  0  0  0  0  0  0  0  0  0  0  0
  1  2  1  0
  2  3  1  0
  3  4  1  6
  3  5  1  0
  5  6  1  0
  6  7  1  0
  7  8  1  6
  7  9  1  0
  9 10  1  1
  9 11  1  0
 11 12  1  6
 11  3  1  0
M  END
>  <shape_align_shape_tanimoto>  (3) 
0.53595632495704482

>  <shape_align_color_tanimoto>  (3) 
0.16261573098281237

>  <metric>  (3) 
combo

>  <metric_score>  (3) 
0.349

>  <template_pid>  (3) 
4AMX

>  <template_shape_score>  (3) 
0.536

>  <template_color_score>  (3) 
0.163

>  <template_combo_score>  (3) 
0.349

$$$$
