4UX4_shape_pose
     RDKit          3D

 19 21  0  0  0  0  0  0  0  0999 V2000
   11.2101   10.1831   22.2084 C   0  0  0  0  0  0  0  0  0  0  0  0
   11.3518    9.3346   21.0055 C   0  0  0  0  0  0  0  0  0  0  0  0
   11.4636    9.8931   19.7533 C   0  0  0  0  0  0  0  0  0  0  0  0
   11.5970    9.1188   18.6148 C   0  0  0  0  0  0  0  0  0  0  0  0
   11.6248    7.7405   18.6769 C   0  0  0  0  0  0  0  0  0  0  0  0
   11.7651    6.9197   17.4805 C   0  0  0  0  0  0  0  0  0  0  0  0
   11.7925    5.5430   17.5476 C   0  0  0  0  0  0  0  0  0  0  0  0
   11.9265    4.7428   16.4101 C   0  0  0  0  0  0  0  0  0  0  0  0
   12.0360    5.3336   15.1722 C   0  0  0  0  0  0  0  0  0  0  0  0
   12.0060    6.7094   15.1312 C   0  0  0  0  0  0  0  0  0  0  0  0
   12.1072    7.2414   13.9905 O   0  0  0  0  0  0  0  0  0  0  0  0
   11.8744    7.4661   16.2565 N   0  0  0  0  0  0  0  0  0  0  0  0
   12.1790    4.5485   13.9542 C   0  0  0  0  0  0  0  0  0  0  0  0
   12.2005    3.2400   14.0751 C   0  0  0  0  0  0  0  0  0  0  0  0
   12.0944    2.4876   15.3220 C   0  0  0  0  0  0  0  0  0  0  0  0
   11.9527    3.3195   16.4908 N   0  0  0  0  0  0  0  0  0  0  0  0
   11.8307    2.7322   17.8030 C   0  0  0  0  0  0  0  0  0  0  0  0
   11.5129    7.1788   19.9314 C   0  0  0  0  0  0  0  0  0  0  0  0
   11.3778    7.9612   21.0844 C   0  0  0  0  0  0  0  0  0  0  0  0
  1  2  1  0
  2  3  2  0
  3  4  1  0
  4  5  2  0
  5  6  1  0
  6  7  2  0
  7  8  1  0
  8  9  2  0
  9 10  1  0
 10 11  2  0
 10 12  1  0
  9 13  1  0
 13 14  2  0
 14 15  1  0
 15 16  1  0
 16 17  1  0
  5 18  1  0
 18 19  2  0
 19  2  1  0
 12  6  1  0
 16  8  1  0
M  END
>  <shape_align_shape_tanimoto>  (1) 
0.80136328634153142

>  <shape_align_color_tanimoto>  (1) 
0.14451628639168179

>  <metric>  (1) 
shape

>  <metric_score>  (1) 
0.801

>  <template_pid>  (1) 
4UX4

>  <template_shape_score>  (1) 
0.801

>  <template_color_score>  (1) 
0.145

>  <template_combo_score>  (1) 
0.473

$$$$
4UX4_color_pose
     RDKit          3D

 19 21  0  0  0  0  0  0  0  0999 V2000
   11.1689   10.0871   22.1266 C   0  0  0  0  0  0  0  0  0  0  0  0
   11.3238    9.2987   20.8817 C   0  0  0  0  0  0  0  0  0  0  0  0
   11.4104    9.8627   19.6277 C   0  0  0  0  0  0  0  0  0  0  0  0
   11.5564    9.0661   18.4847 C   0  0  0  0  0  0  0  0  0  0  0  0
   11.6197    7.6895   18.5623 C   0  0  0  0  0  0  0  0  0  0  0  0
   11.7717    6.8681   17.3676 C   0  0  0  0  0  0  0  0  0  0  0  0
   11.8348    5.4926   17.4465 C   0  0  0  0  0  0  0  0  0  0  0  0
   11.9807    4.6912   16.3070 C   0  0  0  0  0  0  0  0  0  0  0  0
   12.0653    5.2762   15.0631 C   0  0  0  0  0  0  0  0  0  0  0  0
   11.9993    6.6517   15.0161 C   0  0  0  0  0  0  0  0  0  0  0  0
   12.0763    7.2007   13.8752 O   0  0  0  0  0  0  0  0  0  0  0  0
   11.8567    7.4097   16.1431 N   0  0  0  0  0  0  0  0  0  0  0  0
   12.2169    4.4380   13.8821 C   0  0  0  0  0  0  0  0  0  0  0  0
   12.2738    3.1202   13.9967 C   0  0  0  0  0  0  0  0  0  0  0  0
   12.1931    2.3934   15.2757 C   0  0  0  0  0  0  0  0  0  0  0  0
   12.0437    3.2736   16.4103 N   0  0  0  0  0  0  0  0  0  0  0  0
   11.9533    2.6704   17.7262 C   0  0  0  0  0  0  0  0  0  0  0  0
   11.5323    7.1355   19.8186 C   0  0  0  0  0  0  0  0  0  0  0  0
   11.3860    7.9250   20.9688 C   0  0  0  0  0  0  0  0  0  0  0  0
  1  2  1  0
  2  3  2  0
  3  4  1  0
  4  5  2  0
  5  6  1  0
  6  7  2  0
  7  8  1  0
  8  9  2  0
  9 10  1  0
 10 11  2  0
 10 12  1  0
  9 13  1  0
 13 14  2  0
 14 15  1  0
 15 16  1  0
 16 17  1  0
  5 18  1  0
 18 19  2  0
 19  2  1  0
 12  6  1  0
 16  8  1  0
M  END
>  <shape_align_shape_tanimoto>  (2) 
0.79800248927584361

>  <shape_align_color_tanimoto>  (2) 
0.16063471096237986

>  <metric>  (2) 
color

>  <metric_score>  (2) 
0.161

>  <template_pid>  (2) 
4UX4

>  <template_shape_score>  (2) 
0.798

>  <template_color_score>  (2) 
0.161

>  <template_combo_score>  (2) 
0.479

$$$$
4UX4_combo_pose
     RDKit          3D

 19 21  0  0  0  0  0  0  0  0999 V2000
   11.1689   10.0871   22.1266 C   0  0  0  0  0  0  0  0  0  0  0  0
   11.3238    9.2987   20.8817 C   0  0  0  0  0  0  0  0  0  0  0  0
   11.4104    9.8627   19.6277 C   0  0  0  0  0  0  0  0  0  0  0  0
   11.5564    9.0661   18.4847 C   0  0  0  0  0  0  0  0  0  0  0  0
   11.6197    7.6895   18.5623 C   0  0  0  0  0  0  0  0  0  0  0  0
   11.7717    6.8681   17.3676 C   0  0  0  0  0  0  0  0  0  0  0  0
   11.8348    5.4926   17.4465 C   0  0  0  0  0  0  0  0  0  0  0  0
   11.9807    4.6912   16.3070 C   0  0  0  0  0  0  0  0  0  0  0  0
   12.0653    5.2762   15.0631 C   0  0  0  0  0  0  0  0  0  0  0  0
   11.9993    6.6517   15.0161 C   0  0  0  0  0  0  0  0  0  0  0  0
   12.0763    7.2007   13.8752 O   0  0  0  0  0  0  0  0  0  0  0  0
   11.8567    7.4097   16.1431 N   0  0  0  0  0  0  0  0  0  0  0  0
   12.2169    4.4380   13.8821 C   0  0  0  0  0  0  0  0  0  0  0  0
   12.2738    3.1202   13.9967 C   0  0  0  0  0  0  0  0  0  0  0  0
   12.1931    2.3934   15.2757 C   0  0  0  0  0  0  0  0  0  0  0  0
   12.0437    3.2736   16.4103 N   0  0  0  0  0  0  0  0  0  0  0  0
   11.9533    2.6704   17.7262 C   0  0  0  0  0  0  0  0  0  0  0  0
   11.5323    7.1355   19.8186 C   0  0  0  0  0  0  0  0  0  0  0  0
   11.3860    7.9250   20.9688 C   0  0  0  0  0  0  0  0  0  0  0  0
  1  2  1  0
  2  3  2  0
  3  4  1  0
  4  5  2  0
  5  6  1  0
  6  7  2  0
  7  8  1  0
  8  9  2  0
  9 10  1  0
 10 11  2  0
 10 12  1  0
  9 13  1  0
 13 14  2  0
 14 15  1  0
 15 16  1  0
 16 17  1  0
  5 18  1  0
 18 19  2  0
 19  2  1  0
 12  6  1  0
 16  8  1  0
M  END
>  <shape_align_shape_tanimoto>  (3) 
0.79800248927584361

>  <shape_align_color_tanimoto>  (3) 
0.16063471096237986

>  <metric>  (3) 
combo

>  <metric_score>  (3) 
0.479

>  <template_pid>  (3) 
4UX4

>  <template_shape_score>  (3) 
0.798

>  <template_color_score>  (3) 
0.161

>  <template_combo_score>  (3) 
0.479

$$$$
