6JSG_shape_pose
     RDKit          3D

 25 27  0  0  0  0  0  0  0  0999 V2000
   28.6208   73.1700   22.6275 C   0  0  0  0  0  0  0  0  0  0  0  0
   29.0394   73.6582   21.2560 C   0  0  1  0  0  0  0  0  0  0  0  0
   29.3143   75.1045   21.2559 C   0  0  0  0  0  0  0  0  0  0  0  0
   28.5493   75.9295   20.4586 C   0  0  0  0  0  0  0  0  0  0  0  0
   28.7354   77.2986   20.3878 C   0  0  0  0  0  0  0  0  0  0  0  0
   27.8931   78.0464   19.5369 N   0  0  0  0  0  0  0  0  0  0  0  0
   27.9326   79.4375   19.3360 C   0  0  0  0  0  0  0  0  0  0  0  0
   28.7488   80.1849   19.9118 O   0  0  0  0  0  0  0  0  0  0  0  0
   26.9768   80.0795   18.4054 C   0  0  0  0  0  0  0  0  0  0  0  0
   26.9832   81.4363   18.1819 C   0  0  0  0  0  0  0  0  0  0  0  0
   26.0671   81.9790   17.3025 C   0  0  0  0  0  0  0  0  0  0  0  0
   25.1324   81.2186   16.6270 C   0  0  0  0  0  0  0  0  0  0  0  0
   23.9795   81.9306   15.5154 Cl  0  0  0  0  0  0  0  0  0  0  0  0
   25.1613   79.8524   16.8825 C   0  0  0  0  0  0  0  0  0  0  0  0
   26.0606   79.3227   17.7453 N   0  0  0  0  0  0  0  0  0  0  0  0
   29.7396   77.8173   21.1644 C   0  0  0  0  0  0  0  0  0  0  0  0
   30.5406   77.0179   21.9887 C   0  0  0  0  0  0  0  0  0  0  0  0
   30.3103   75.6614   22.0193 C   0  0  0  0  0  0  0  0  0  0  0  0
   31.1039   74.9263   22.8346 F   0  0  0  0  0  0  0  0  0  0  0  0
   30.2791   72.8888   20.9207 C   0  0  0  0  0  0  0  0  0  0  0  0
   30.9849   73.2830   19.6845 C   0  0  0  0  0  0  0  0  0  0  0  0
   29.8440   73.6059   18.2983 S   0  0  0  0  0  0  0  0  0  0  0  0
   28.2186   73.2156   18.9844 C   0  0  0  0  0  0  0  0  0  0  0  0
   27.2860   72.7900   18.2046 N   0  0  0  0  0  0  0  0  0  0  0  0
   27.9346   73.3643   20.3662 N   0  0  0  0  0  0  0  0  0  0  0  0
  2  1  1  1
  2  3  1  0
  3  4  2  0
  4  5  1  0
  5  6  1  0
  6  7  1  0
  7  8  2  0
  7  9  1  0
  9 10  2  0
 10 11  1  0
 11 12  2  0
 12 13  1  0
 12 14  1  0
 14 15  2  0
  5 16  2  0
 16 17  1  0
 17 18  2  0
 18 19  1  0
  2 20  1  0
 20 21  1  0
 21 22  1  0
 22 23  1  0
 23 24  2  0
 23 25  1  0
 25  2  1  0
 18  3  1  0
 15  9  1  0
M  CHG  1  24   1
M  END
>  <shape_align_shape_tanimoto>  (1) 
0.92523104599492745

>  <shape_align_color_tanimoto>  (1) 
0.091161407341106851

>  <metric>  (1) 
shape

>  <metric_score>  (1) 
0.925

>  <template_pid>  (1) 
6JSG

>  <template_shape_score>  (1) 
0.925

>  <template_color_score>  (1) 
0.091

>  <template_combo_score>  (1) 
0.508

$$$$
6JSG_color_pose
     RDKit          3D

 25 27  0  0  0  0  0  0  0  0999 V2000
   28.3999   74.0512   21.7625 C   0  0  0  0  0  0  0  0  0  0  0  0
   29.0465   74.5834   20.4599 C   0  0  1  0  0  0  0  0  0  0  0  0
   29.1241   76.0521   20.6662 C   0  0  0  0  0  0  0  0  0  0  0  0
   28.4531   77.0010   19.9622 C   0  0  0  0  0  0  0  0  0  0  0  0
   28.5653   78.3389   20.1940 C   0  0  0  0  0  0  0  0  0  0  0  0
   27.8979   79.3737   19.5007 N   0  0  0  0  0  0  0  0  0  0  0  0
   26.9936   79.2179   18.4424 C   0  0  0  0  0  0  0  0  0  0  0  0
   26.6672   78.1196   17.9810 O   0  0  0  0  0  0  0  0  0  0  0  0
   26.3767   80.4092   17.8196 C   0  0  0  0  0  0  0  0  0  0  0  0
   25.4822   80.3067   16.7767 C   0  0  0  0  0  0  0  0  0  0  0  0
   24.8910   81.3994   16.1759 C   0  0  0  0  0  0  0  0  0  0  0  0
   25.2310   82.6465   16.6645 C   0  0  0  0  0  0  0  0  0  0  0  0
   24.5154   84.0757   15.9456 Cl  0  0  0  0  0  0  0  0  0  0  0  0
   26.1275   82.7349   17.7087 C   0  0  0  0  0  0  0  0  0  0  0  0
   26.6817   81.6472   18.2669 N   0  0  0  0  0  0  0  0  0  0  0  0
   29.4233   78.7266   21.2166 C   0  0  0  0  0  0  0  0  0  0  0  0
   30.1272   77.8115   21.9614 C   0  0  0  0  0  0  0  0  0  0  0  0
   29.9785   76.4725   21.6873 C   0  0  0  0  0  0  0  0  0  0  0  0
   30.6875   75.6063   22.4461 F   0  0  0  0  0  0  0  0  0  0  0  0
   30.4485   74.0931   20.3939 C   0  0  0  0  0  0  0  0  0  0  0  0
   30.7961   73.1030   19.3464 C   0  0  0  0  0  0  0  0  0  0  0  0
   29.5172   71.7780   19.4055 S   0  0  0  0  0  0  0  0  0  0  0  0
   28.0185   72.7656   19.1251 C   0  0  0  0  0  0  0  0  0  0  0  0
   26.9316   72.2378   18.6996 N   0  0  0  0  0  0  0  0  0  0  0  0
   28.1648   74.1656   19.4138 N   0  0  0  0  0  0  0  0  0  0  0  0
  2  1  1  1
  2  3  1  0
  3  4  2  0
  4  5  1  0
  5  6  1  0
  6  7  1  0
  7  8  2  0
  7  9  1  0
  9 10  2  0
 10 11  1  0
 11 12  2  0
 12 13  1  0
 12 14  1  0
 14 15  2  0
  5 16  2  0
 16 17  1  0
 17 18  2  0
 18 19  1  0
  2 20  1  0
 20 21  1  0
 21 22  1  0
 22 23  1  0
 23 24  2  0
 23 25  1  0
 25  2  1  0
 18  3  1  0
 15  9  1  0
M  CHG  1  24   1
M  END
>  <shape_align_shape_tanimoto>  (2) 
0.75343857600910091

>  <shape_align_color_tanimoto>  (2) 
0.11948240644898522

>  <metric>  (2) 
color

>  <metric_score>  (2) 
0.119

>  <template_pid>  (2) 
6JSG

>  <template_shape_score>  (2) 
0.753

>  <template_color_score>  (2) 
0.119

>  <template_combo_score>  (2) 
0.436

$$$$
6JSG_combo_pose
     RDKit          3D

 25 27  0  0  0  0  0  0  0  0999 V2000
   28.6034   73.3810   22.6536 C   0  0  0  0  0  0  0  0  0  0  0  0
   29.0533   73.7107   21.2467 C   0  0  1  0  0  0  0  0  0  0  0  0
   29.3038   75.1725   21.2239 C   0  0  0  0  0  0  0  0  0  0  0  0
   28.5190   75.9679   20.4167 C   0  0  0  0  0  0  0  0  0  0  0  0
   28.7159   77.3342   20.3632 C   0  0  0  0  0  0  0  0  0  0  0  0
   27.8798   78.0927   19.5177 N   0  0  0  0  0  0  0  0  0  0  0  0
   27.9205   79.4831   19.3258 C   0  0  0  0  0  0  0  0  0  0  0  0
   28.7216   80.2297   19.8952 O   0  0  0  0  0  0  0  0  0  0  0  0
   26.9630   80.1213   18.3951 C   0  0  0  0  0  0  0  0  0  0  0  0
   26.9614   81.4811   18.1717 C   0  0  0  0  0  0  0  0  0  0  0  0
   26.0427   82.0320   17.2889 C   0  0  0  0  0  0  0  0  0  0  0  0
   25.1177   81.2523   16.6178 C   0  0  0  0  0  0  0  0  0  0  0  0
   23.9583   81.9588   15.5019 Cl  0  0  0  0  0  0  0  0  0  0  0  0
   25.1498   79.8826   16.8691 C   0  0  0  0  0  0  0  0  0  0  0  0
   26.0544   79.3825   17.7316 N   0  0  0  0  0  0  0  0  0  0  0  0
   29.7216   77.8402   21.1484 C   0  0  0  0  0  0  0  0  0  0  0  0
   30.5184   77.0390   21.9670 C   0  0  0  0  0  0  0  0  0  0  0  0
   30.3159   75.6749   22.0152 C   0  0  0  0  0  0  0  0  0  0  0  0
   31.0819   74.8851   22.8053 F   0  0  0  0  0  0  0  0  0  0  0  0
   30.2849   72.9080   20.9281 C   0  0  0  0  0  0  0  0  0  0  0  0
   30.9702   73.3736   19.6658 C   0  0  0  0  0  0  0  0  0  0  0  0
   29.7784   73.4631   18.2989 S   0  0  0  0  0  0  0  0  0  0  0  0
   28.1363   73.1428   18.9609 C   0  0  0  0  0  0  0  0  0  0  0  0
   27.1894   72.7319   18.1894 N   0  0  0  0  0  0  0  0  0  0  0  0
   27.9597   73.3685   20.3589 N   0  0  0  0  0  0  0  0  0  0  0  0
  2  1  1  1
  2  3  1  0
  3  4  2  0
  4  5  1  0
  5  6  1  0
  6  7  1  0
  7  8  2  0
  7  9  1  0
  9 10  2  0
 10 11  1  0
 11 12  2  0
 12 13  1  0
 12 14  1  0
 14 15  2  0
  5 16  2  0
 16 17  1  0
 17 18  2  0
 18 19  1  0
  2 20  1  0
 20 21  1  0
 21 22  1  0
 22 23  1  0
 23 24  2  0
 23 25  1  0
 25  2  1  0
 18  3  1  0
 15  9  1  0
M  CHG  1  24   1
M  END
>  <shape_align_shape_tanimoto>  (3) 
0.9244851030934772

>  <shape_align_color_tanimoto>  (3) 
0.09847285004150455

>  <metric>  (3) 
combo

>  <metric_score>  (3) 
0.511

>  <template_pid>  (3) 
6JSG

>  <template_shape_score>  (3) 
0.924

>  <template_color_score>  (3) 
0.098

>  <template_combo_score>  (3) 
0.511

$$$$
