5BOJ_shape_pose
     RDKit          3D

 18 18  0  0  0  0  0  0  0  0999 V2000
    2.6780   10.5545   -0.0155 C   0  0  0  0  0  0  0  0  0  0  0  0
    2.9002    9.1692    0.4758 C   0  0  0  0  0  0  0  0  0  0  0  0
    3.7055    9.0264    1.5910 C   0  0  0  0  0  0  0  0  0  0  0  0
    3.9606    7.7736    2.1089 C   0  0  0  0  0  0  0  0  0  0  0  0
    3.3883    6.6907    1.4779 C   0  0  0  0  0  0  0  0  0  0  0  0
    3.6520    5.3312    2.0223 C   0  0  0  0  0  0  0  0  0  0  0  0
    2.5813    6.8139    0.3632 C   0  0  0  0  0  0  0  0  0  0  0  0
    2.0558    5.6846   -0.1978 O   0  0  0  0  0  0  0  0  0  0  0  0
    1.2210    5.6061   -1.3229 C   0  0  0  0  0  0  0  0  0  0  0  0
    0.9307    4.1102   -1.5142 C   0  0  0  0  0  0  0  0  0  0  0  0
    0.2512    3.6406   -0.2476 C   0  0  0  0  0  0  0  0  0  0  0  0
   -0.1087    2.1822   -0.2602 C   0  0  0  0  0  0  0  0  0  0  0  0
   -1.0446    1.7983   -1.3603 C   0  0  0  0  0  0  0  0  0  0  0  0
    1.1237    1.2972   -0.2950 C   0  0  0  0  0  0  0  0  0  0  0  0
   -0.8137    1.9383    1.0422 C   0  0  0  0  0  0  0  0  0  0  0  0
   -0.3739    1.1067    1.8902 O   0  0  0  0  0  0  0  0  0  0  0  0
   -1.9860    2.6667    1.2938 O   0  0  0  0  0  0  0  0  0  0  0  0
    2.3339    8.0721   -0.1451 C   0  0  0  0  0  0  0  0  0  0  0  0
  1  2  1  0
  2  3  2  0
  3  4  1  0
  4  5  2  0
  5  6  1  0
  5  7  1  0
  7  8  1  0
  8  9  1  0
  9 10  1  0
 10 11  1  0
 11 12  1  0
 12 13  1  0
 12 14  1  0
 12 15  1  0
 15 16  2  0
 15 17  1  0
  7 18  2  0
 18  2  1  0
M  CHG  1  17  -1
M  END
>  <shape_align_shape_tanimoto>  (1) 
0.20945713498730184

>  <shape_align_color_tanimoto>  (1) 
0.0068628612743410668

>  <metric>  (1) 
shape

>  <metric_score>  (1) 
0.209

>  <template_pid>  (1) 
5BOJ

>  <template_shape_score>  (1) 
0.209

>  <template_color_score>  (1) 
0.007

>  <template_combo_score>  (1) 
0.108

$$$$
5BOJ_color_pose
     RDKit          3D

 18 18  0  0  0  0  0  0  0  0999 V2000
    2.4281    8.6138    0.5563 C   0  0  0  0  0  0  0  0  0  0  0  0
    2.7024    9.8589   -0.2128 C   0  0  0  0  0  0  0  0  0  0  0  0
    3.8518    9.9369   -0.9654 C   0  0  0  0  0  0  0  0  0  0  0  0
    4.0839   11.0966   -1.6671 C   0  0  0  0  0  0  0  0  0  0  0  0
    3.1991   12.1494   -1.6228 C   0  0  0  0  0  0  0  0  0  0  0  0
    3.5154   13.3884   -2.4150 C   0  0  0  0  0  0  0  0  0  0  0  0
    2.0196   12.0954   -0.8633 C   0  0  0  0  0  0  0  0  0  0  0  0
    1.2235   13.1935   -0.8940 O   0  0  0  0  0  0  0  0  0  0  0  0
    0.0294   13.5261   -0.3246 C   0  0  0  0  0  0  0  0  0  0  0  0
   -1.1562   12.7014   -0.7040 C   0  0  0  0  0  0  0  0  0  0  0  0
   -2.3439   13.2595    0.0501 C   0  0  0  0  0  0  0  0  0  0  0  0
   -3.6270   12.5475   -0.2104 C   0  0  0  0  0  0  0  0  0  0  0  0
   -3.5857   11.0819    0.1585 C   0  0  0  0  0  0  0  0  0  0  0  0
   -4.6530   13.1775    0.7482 C   0  0  0  0  0  0  0  0  0  0  0  0
   -4.0442   12.7178   -1.6074 C   0  0  0  0  0  0  0  0  0  0  0  0
   -3.4275   13.3788   -2.4748 O   0  0  0  0  0  0  0  0  0  0  0  0
   -5.2207   12.0984   -2.0138 O   0  0  0  0  0  0  0  0  0  0  0  0
    1.8114   10.9305   -0.1732 C   0  0  0  0  0  0  0  0  0  0  0  0
  1  2  1  0
  2  3  2  0
  3  4  1  0
  4  5  2  0
  5  6  1  0
  5  7  1  0
  7  8  1  0
  8  9  1  0
  9 10  1  0
 10 11  1  0
 11 12  1  0
 12 13  1  0
 12 14  1  0
 12 15  1  0
 15 16  2  0
 15 17  1  0
  7 18  2  0
 18  2  1  0
M  CHG  1  17  -1
M  END
>  <shape_align_shape_tanimoto>  (2) 
0.20433682190180161

>  <shape_align_color_tanimoto>  (2) 
0.03048743027198865

>  <metric>  (2) 
color

>  <metric_score>  (2) 
0.030

>  <template_pid>  (2) 
5BOJ

>  <template_shape_score>  (2) 
0.204

>  <template_color_score>  (2) 
0.030

>  <template_combo_score>  (2) 
0.117

$$$$
5BOJ_combo_pose
     RDKit          3D

 18 18  0  0  0  0  0  0  0  0999 V2000
    2.4281    8.6138    0.5563 C   0  0  0  0  0  0  0  0  0  0  0  0
    2.7024    9.8589   -0.2128 C   0  0  0  0  0  0  0  0  0  0  0  0
    3.8518    9.9369   -0.9654 C   0  0  0  0  0  0  0  0  0  0  0  0
    4.0839   11.0966   -1.6671 C   0  0  0  0  0  0  0  0  0  0  0  0
    3.1991   12.1494   -1.6228 C   0  0  0  0  0  0  0  0  0  0  0  0
    3.5154   13.3884   -2.4150 C   0  0  0  0  0  0  0  0  0  0  0  0
    2.0196   12.0954   -0.8633 C   0  0  0  0  0  0  0  0  0  0  0  0
    1.2235   13.1935   -0.8940 O   0  0  0  0  0  0  0  0  0  0  0  0
    0.0294   13.5261   -0.3246 C   0  0  0  0  0  0  0  0  0  0  0  0
   -1.1562   12.7014   -0.7040 C   0  0  0  0  0  0  0  0  0  0  0  0
   -2.3439   13.2595    0.0501 C   0  0  0  0  0  0  0  0  0  0  0  0
   -3.6270   12.5475   -0.2104 C   0  0  0  0  0  0  0  0  0  0  0  0
   -3.5857   11.0819    0.1585 C   0  0  0  0  0  0  0  0  0  0  0  0
   -4.6530   13.1775    0.7482 C   0  0  0  0  0  0  0  0  0  0  0  0
   -4.0442   12.7178   -1.6074 C   0  0  0  0  0  0  0  0  0  0  0  0
   -3.4275   13.3788   -2.4748 O   0  0  0  0  0  0  0  0  0  0  0  0
   -5.2207   12.0984   -2.0138 O   0  0  0  0  0  0  0  0  0  0  0  0
    1.8114   10.9305   -0.1732 C   0  0  0  0  0  0  0  0  0  0  0  0
  1  2  1  0
  2  3  2  0
  3  4  1  0
  4  5  2  0
  5  6  1  0
  5  7  1  0
  7  8  1  0
  8  9  1  0
  9 10  1  0
 10 11  1  0
 11 12  1  0
 12 13  1  0
 12 14  1  0
 12 15  1  0
 15 16  2  0
 15 17  1  0
  7 18  2  0
 18  2  1  0
M  CHG  1  17  -1
M  END
>  <shape_align_shape_tanimoto>  (3) 
0.20433682190180161

>  <shape_align_color_tanimoto>  (3) 
0.03048743027198865

>  <metric>  (3) 
combo

>  <metric_score>  (3) 
0.117

>  <template_pid>  (3) 
5BOJ

>  <template_shape_score>  (3) 
0.204

>  <template_color_score>  (3) 
0.030

>  <template_combo_score>  (3) 
0.117

$$$$
