1YDB_shape_pose
     RDKit          3D

 13 13  0  0  0  0  0  0  0  0999 V2000
   18.0527    8.5792   13.6840 C   0  0  0  0  0  0  0  0  0  0  0  0
   18.0665    7.1374   14.1155 C   0  0  0  0  0  0  0  0  0  0  0  0
   19.1052    6.4560   13.9758 O   0  0  0  0  0  0  0  0  0  0  0  0
   16.9033    6.6008   14.6651 N   0  0  0  0  0  0  0  0  0  0  0  0
   16.9223    5.2298   15.0734 C   0  0  0  0  0  0  0  0  0  0  0  0
   17.7516    4.2888   15.0819 N   0  0  0  0  0  0  0  0  0  0  0  0
   17.4825    3.1199   15.5251 N   0  0  0  0  0  0  0  0  0  0  0  0
   16.3625    2.8034   15.9938 C   0  0  0  0  0  0  0  0  0  0  0  0
   15.5529    1.4322   16.6709 S   0  0  0  0  0  0  0  0  0  0  0  0
   15.7981    1.3996   18.3657 N   0  0  0  0  0  0  0  0  0  0  0  0
   15.9950    0.1453   16.0749 O   0  0  0  0  0  0  0  0  0  0  0  0
   14.0492    1.5472   16.4524 O   0  0  0  0  0  0  0  0  0  0  0  0
   15.4581    4.4595   15.7941 S   0  0  0  0  0  0  0  0  0  0  0  0
  1  2  1  0
  2  3  2  0
  2  4  1  0
  4  5  1  0
  5  6  2  0
  6  7  1  0
  7  8  2  0
  8  9  1  0
  9 10  1  0
  9 11  2  0
  9 12  2  0
  8 13  1  0
 13  5  1  0
M  END
>  <shape_align_shape_tanimoto>  (1) 
0.78526490626762413

>  <shape_align_color_tanimoto>  (1) 
0.1585246461835455

>  <metric>  (1) 
shape

>  <metric_score>  (1) 
0.785

>  <template_pid>  (1) 
1YDB

>  <template_shape_score>  (1) 
0.785

>  <template_color_score>  (1) 
0.159

>  <template_combo_score>  (1) 
0.472

$$$$
1YDB_color_pose
     RDKit          3D

 13 13  0  0  0  0  0  0  0  0999 V2000
   18.0766    8.5788   13.6715 C   0  0  0  0  0  0  0  0  0  0  0  0
   18.0374    7.1777   14.1116 C   0  0  0  0  0  0  0  0  0  0  0  0
   19.0752    6.4774   13.9801 O   0  0  0  0  0  0  0  0  0  0  0  0
   16.8958    6.5752   14.6745 N   0  0  0  0  0  0  0  0  0  0  0  0
   17.0291    5.1897   15.0525 C   0  0  0  0  0  0  0  0  0  0  0  0
   17.7511    4.2742   15.0916 N   0  0  0  0  0  0  0  0  0  0  0  0
   17.4607    3.0985   15.5464 N   0  0  0  0  0  0  0  0  0  0  0  0
   16.4191    2.7647   15.9941 C   0  0  0  0  0  0  0  0  0  0  0  0
   15.5453    1.4275   16.6897 S   0  0  0  0  0  0  0  0  0  0  0  0
   15.7563    1.4341   18.3798 N   0  0  0  0  0  0  0  0  0  0  0  0
   15.9936    0.1357   16.1062 O   0  0  0  0  0  0  0  0  0  0  0  0
   14.0472    1.5544   16.4430 O   0  0  0  0  0  0  0  0  0  0  0  0
   15.4723    4.4031   15.8093 S   0  0  0  0  0  0  0  0  0  0  0  0
  1  2  1  0
  2  3  2  0
  2  4  1  0
  4  5  1  0
  5  6  2  0
  6  7  1  0
  7  8  2  0
  8  9  1  0
  9 10  1  0
  9 11  2  0
  9 12  2  0
  8 13  1  0
 13  5  1  0
M  END
>  <shape_align_shape_tanimoto>  (2) 
0.7851084805227676

>  <shape_align_color_tanimoto>  (2) 
0.1596040357556596

>  <metric>  (2) 
color

>  <metric_score>  (2) 
0.160

>  <template_pid>  (2) 
1YDB

>  <template_shape_score>  (2) 
0.785

>  <template_color_score>  (2) 
0.160

>  <template_combo_score>  (2) 
0.472

$$$$
1YDB_combo_pose
     RDKit          3D

 13 13  0  0  0  0  0  0  0  0999 V2000
   18.0766    8.5788   13.6715 C   0  0  0  0  0  0  0  0  0  0  0  0
   18.0374    7.1777   14.1116 C   0  0  0  0  0  0  0  0  0  0  0  0
   19.0752    6.4774   13.9801 O   0  0  0  0  0  0  0  0  0  0  0  0
   16.8958    6.5752   14.6745 N   0  0  0  0  0  0  0  0  0  0  0  0
   17.0291    5.1897   15.0525 C   0  0  0  0  0  0  0  0  0  0  0  0
   17.7511    4.2742   15.0916 N   0  0  0  0  0  0  0  0  0  0  0  0
   17.4607    3.0985   15.5464 N   0  0  0  0  0  0  0  0  0  0  0  0
   16.4191    2.7647   15.9941 C   0  0  0  0  0  0  0  0  0  0  0  0
   15.5453    1.4275   16.6897 S   0  0  0  0  0  0  0  0  0  0  0  0
   15.7563    1.4341   18.3798 N   0  0  0  0  0  0  0  0  0  0  0  0
   15.9936    0.1357   16.1062 O   0  0  0  0  0  0  0  0  0  0  0  0
   14.0472    1.5544   16.4430 O   0  0  0  0  0  0  0  0  0  0  0  0
   15.4723    4.4031   15.8093 S   0  0  0  0  0  0  0  0  0  0  0  0
  1  2  1  0
  2  3  2  0
  2  4  1  0
  4  5  1  0
  5  6  2  0
  6  7  1  0
  7  8  2  0
  8  9  1  0
  9 10  1  0
  9 11  2  0
  9 12  2  0
  8 13  1  0
 13  5  1  0
M  END
>  <shape_align_shape_tanimoto>  (3) 
0.7851084805227676

>  <shape_align_color_tanimoto>  (3) 
0.1596040357556596

>  <metric>  (3) 
combo

>  <metric_score>  (3) 
0.472

>  <template_pid>  (3) 
1YDB

>  <template_shape_score>  (3) 
0.785

>  <template_color_score>  (3) 
0.160

>  <template_combo_score>  (3) 
0.472

$$$$
