6EZQ_shape_pose
     RDKit          3D

 27 28  0  0  0  0  0  0  0  0999 V2000
  -13.6044    6.4200   40.0647 O   0  0  0  0  0  0  0  0  0  0  0  0
  -12.8107    7.3211   40.3931 C   0  0  0  0  0  0  0  0  0  0  0  0
  -13.1695    8.6268   40.0214 O   0  0  0  0  0  0  0  0  0  0  0  0
  -11.5460    7.1634   41.1242 C   0  0  0  0  0  0  0  0  0  0  0  0
  -11.2309    5.7452   41.4059 C   0  0  0  0  0  0  0  0  0  0  0  0
  -11.0345    4.8712   40.1686 C   0  0  0  0  0  0  0  0  0  0  0  0
  -10.7256    3.4781   40.6348 C   0  0  0  0  0  0  0  0  0  0  0  0
  -10.5166    2.4169   39.6576 C   0  0  0  0  0  0  0  0  0  0  0  0
   -9.4313    2.3619   38.6932 C   0  0  0  0  0  0  0  0  0  0  0  0
   -9.2575    3.4273   37.6828 C   0  0  0  0  0  0  0  0  0  0  0  0
   -8.1051    3.1075   36.7282 C   0  0  0  0  0  0  0  0  0  0  0  0
   -7.9311    4.1639   35.7372 C   0  0  0  0  0  0  0  0  0  0  0  0
   -8.9162    4.5236   34.7338 C   0  0  0  0  0  0  0  0  0  0  0  0
  -10.2674    4.9880   35.0215 C   0  0  0  0  0  0  0  0  0  0  0  0
  -10.4623    6.1372   35.8370 N   0  0  0  0  0  0  0  0  0  0  0  0
  -10.1629    7.4788   35.5208 C   0  0  0  0  0  0  0  0  0  0  0  0
   -9.6502    7.9085   34.3206 C   0  0  0  0  0  0  0  0  0  0  0  0
   -9.3864    9.2549   34.0530 C   0  0  0  0  0  0  0  0  0  0  0  0
   -9.6314   10.2209   34.9893 C   0  0  0  0  0  0  0  0  0  0  0  0
   -9.3526   11.5710   34.6845 N   0  0  0  0  0  0  0  0  0  0  0  0
   -9.3865   11.9517   33.5096 O   0  0  0  0  0  0  0  0  0  0  0  0
   -9.0405   12.4890   35.6632 O   0  0  0  0  0  0  0  0  0  0  0  0
  -10.1468    9.8129   36.2018 C   0  0  0  0  0  0  0  0  0  0  0  0
  -10.4819   10.5278   37.2974 N   0  0  0  0  0  0  0  0  0  0  0  0
  -10.9218    9.7058   38.1880 O   0  0  0  0  0  0  0  0  0  0  0  0
  -10.8926    8.4709   37.7273 N   0  0  0  0  0  0  0  0  0  0  0  0
  -10.4059    8.4876   36.4643 C   0  0  0  0  0  0  0  0  0  0  0  0
  1  2  2  0
  2  3  1  0
  2  4  1  0
  4  5  1  0
  5  6  1  0
  6  7  1  0
  7  8  1  0
  8  9  1  0
  9 10  1  0
 10 11  1  0
 11 12  1  0
 12 13  1  0
 13 14  1  0
 14 15  1  0
 15 16  1  0
 16 17  2  0
 17 18  1  0
 18 19  2  0
 19 20  1  0
 20 21  2  0
 20 22  1  0
 19 23  1  0
 23 24  2  0
 24 25  1  0
 25 26  1  0
 26 27  2  0
 27 16  1  0
 27 23  1  0
M  CHG  3   3  -1  20   1  22  -1
M  END
>  <shape_align_shape_tanimoto>  (1) 
0.59367880952354501

>  <shape_align_color_tanimoto>  (1) 
0.10812168008975742

>  <metric>  (1) 
shape

>  <metric_score>  (1) 
0.594

>  <template_pid>  (1) 
6EZQ

>  <template_shape_score>  (1) 
0.594

>  <template_color_score>  (1) 
0.108

>  <template_combo_score>  (1) 
0.351

$$$$
6EZQ_color_pose
     RDKit          3D

 27 28  0  0  0  0  0  0  0  0999 V2000
   -9.4349    4.6771   35.4904 O   0  0  0  0  0  0  0  0  0  0  0  0
   -9.6219    3.7457   36.3163 C   0  0  0  0  0  0  0  0  0  0  0  0
  -10.9486    3.4674   36.7094 O   0  0  0  0  0  0  0  0  0  0  0  0
   -8.5402    2.9250   36.9029 C   0  0  0  0  0  0  0  0  0  0  0  0
   -7.1601    3.3083   36.5085 C   0  0  0  0  0  0  0  0  0  0  0  0
   -6.8560    3.2446   35.0314 C   0  0  0  0  0  0  0  0  0  0  0  0
   -5.4162    3.6232   34.7751 C   0  0  0  0  0  0  0  0  0  0  0  0
   -5.0076    4.9659   35.2266 C   0  0  0  0  0  0  0  0  0  0  0  0
   -5.7918    6.0772   34.5361 C   0  0  0  0  0  0  0  0  0  0  0  0
   -5.2965    7.3611   35.1200 C   0  0  0  0  0  0  0  0  0  0  0  0
   -5.9079    8.6013   34.5729 C   0  0  0  0  0  0  0  0  0  0  0  0
   -7.3964    8.6643   34.7182 C   0  0  0  0  0  0  0  0  0  0  0  0
   -7.8317   10.0407   34.1958 C   0  0  0  0  0  0  0  0  0  0  0  0
   -9.3598   10.1387   34.3038 C   0  0  0  0  0  0  0  0  0  0  0  0
   -9.8418    9.9124   35.5561 N   0  0  0  0  0  0  0  0  0  0  0  0
  -10.3278    9.6846   36.8206 C   0  0  0  0  0  0  0  0  0  0  0  0
  -10.0230   10.2153   38.0318 C   0  0  0  0  0  0  0  0  0  0  0  0
  -10.6083    9.8264   39.2378 C   0  0  0  0  0  0  0  0  0  0  0  0
  -11.5519    8.8415   39.1715 C   0  0  0  0  0  0  0  0  0  0  0  0
  -12.1603    8.4133   40.3757 N   0  0  0  0  0  0  0  0  0  0  0  0
  -13.3613    8.0024   40.4363 O   0  0  0  0  0  0  0  0  0  0  0  0
  -11.3857    8.4560   41.5295 O   0  0  0  0  0  0  0  0  0  0  0  0
  -11.9201    8.2550   38.0059 C   0  0  0  0  0  0  0  0  0  0  0  0
  -12.7993    7.2986   37.6847 N   0  0  0  0  0  0  0  0  0  0  0  0
  -12.7602    7.1155   36.4127 O   0  0  0  0  0  0  0  0  0  0  0  0
  -11.8903    7.9140   35.8880 N   0  0  0  0  0  0  0  0  0  0  0  0
  -11.3241    8.6627   36.8489 C   0  0  0  0  0  0  0  0  0  0  0  0
  1  2  2  0
  2  3  1  0
  2  4  1  0
  4  5  1  0
  5  6  1  0
  6  7  1  0
  7  8  1  0
  8  9  1  0
  9 10  1  0
 10 11  1  0
 11 12  1  0
 12 13  1  0
 13 14  1  0
 14 15  1  0
 15 16  1  0
 16 17  2  0
 17 18  1  0
 18 19  2  0
 19 20  1  0
 20 21  2  0
 20 22  1  0
 19 23  1  0
 23 24  2  0
 24 25  1  0
 25 26  1  0
 26 27  2  0
 27 16  1  0
 27 23  1  0
M  CHG  3   3  -1  20   1  22  -1
M  END
>  <shape_align_shape_tanimoto>  (2) 
0.49658594255361216

>  <shape_align_color_tanimoto>  (2) 
0.12694997790639598

>  <metric>  (2) 
color

>  <metric_score>  (2) 
0.127

>  <template_pid>  (2) 
6EZQ

>  <template_shape_score>  (2) 
0.497

>  <template_color_score>  (2) 
0.127

>  <template_combo_score>  (2) 
0.312

$$$$
6EZQ_combo_pose
     RDKit          3D

 27 28  0  0  0  0  0  0  0  0999 V2000
  -13.6044    6.4200   40.0647 O   0  0  0  0  0  0  0  0  0  0  0  0
  -12.8107    7.3211   40.3931 C   0  0  0  0  0  0  0  0  0  0  0  0
  -13.1695    8.6268   40.0214 O   0  0  0  0  0  0  0  0  0  0  0  0
  -11.5460    7.1634   41.1242 C   0  0  0  0  0  0  0  0  0  0  0  0
  -11.2309    5.7452   41.4059 C   0  0  0  0  0  0  0  0  0  0  0  0
  -11.0345    4.8712   40.1686 C   0  0  0  0  0  0  0  0  0  0  0  0
  -10.7256    3.4781   40.6348 C   0  0  0  0  0  0  0  0  0  0  0  0
  -10.5166    2.4169   39.6576 C   0  0  0  0  0  0  0  0  0  0  0  0
   -9.4313    2.3619   38.6932 C   0  0  0  0  0  0  0  0  0  0  0  0
   -9.2575    3.4273   37.6828 C   0  0  0  0  0  0  0  0  0  0  0  0
   -8.1051    3.1075   36.7282 C   0  0  0  0  0  0  0  0  0  0  0  0
   -7.9311    4.1639   35.7372 C   0  0  0  0  0  0  0  0  0  0  0  0
   -8.9162    4.5236   34.7338 C   0  0  0  0  0  0  0  0  0  0  0  0
  -10.2674    4.9880   35.0215 C   0  0  0  0  0  0  0  0  0  0  0  0
  -10.4623    6.1372   35.8370 N   0  0  0  0  0  0  0  0  0  0  0  0
  -10.1629    7.4788   35.5208 C   0  0  0  0  0  0  0  0  0  0  0  0
   -9.6502    7.9085   34.3206 C   0  0  0  0  0  0  0  0  0  0  0  0
   -9.3864    9.2549   34.0530 C   0  0  0  0  0  0  0  0  0  0  0  0
   -9.6314   10.2209   34.9893 C   0  0  0  0  0  0  0  0  0  0  0  0
   -9.3526   11.5710   34.6845 N   0  0  0  0  0  0  0  0  0  0  0  0
   -9.3865   11.9517   33.5096 O   0  0  0  0  0  0  0  0  0  0  0  0
   -9.0405   12.4890   35.6632 O   0  0  0  0  0  0  0  0  0  0  0  0
  -10.1468    9.8129   36.2018 C   0  0  0  0  0  0  0  0  0  0  0  0
  -10.4819   10.5278   37.2974 N   0  0  0  0  0  0  0  0  0  0  0  0
  -10.9218    9.7058   38.1880 O   0  0  0  0  0  0  0  0  0  0  0  0
  -10.8926    8.4709   37.7273 N   0  0  0  0  0  0  0  0  0  0  0  0
  -10.4059    8.4876   36.4643 C   0  0  0  0  0  0  0  0  0  0  0  0
  1  2  2  0
  2  3  1  0
  2  4  1  0
  4  5  1  0
  5  6  1  0
  6  7  1  0
  7  8  1  0
  8  9  1  0
  9 10  1  0
 10 11  1  0
 11 12  1  0
 12 13  1  0
 13 14  1  0
 14 15  1  0
 15 16  1  0
 16 17  2  0
 17 18  1  0
 18 19  2  0
 19 20  1  0
 20 21  2  0
 20 22  1  0
 19 23  1  0
 23 24  2  0
 24 25  1  0
 25 26  1  0
 26 27  2  0
 27 16  1  0
 27 23  1  0
M  CHG  3   3  -1  20   1  22  -1
M  END
>  <shape_align_shape_tanimoto>  (3) 
0.59367880952354501

>  <shape_align_color_tanimoto>  (3) 
0.10812168008975742

>  <metric>  (3) 
combo

>  <metric_score>  (3) 
0.351

>  <template_pid>  (3) 
6EZQ

>  <template_shape_score>  (3) 
0.594

>  <template_color_score>  (3) 
0.108

>  <template_combo_score>  (3) 
0.351

$$$$
