6N9L_shape_pose
     RDKit          3D

 27 29  0  0  0  0  0  0  0  0999 V2000
   40.3623   26.5651   33.6519 N   0  0  0  0  0  0  0  0  0  0  0  0
   39.0154   26.1349   33.5552 C   0  0  0  0  0  0  0  0  0  0  0  0
   38.1690   26.3847   34.5720 N   0  0  0  0  0  0  0  0  0  0  0  0
   36.8757   25.9915   34.5204 C   0  0  0  0  0  0  0  0  0  0  0  0
   36.4426   25.3384   33.4229 N   0  0  0  0  0  0  0  0  0  0  0  0
   37.2328   25.0598   32.3796 C   0  0  0  0  0  0  0  0  0  0  0  0
   38.5504   25.4650   32.4419 C   0  0  0  0  0  0  0  0  0  0  0  0
   39.1221   25.0716   31.2895 N   0  0  0  0  0  0  0  0  0  0  0  0
   38.1728   24.4408   30.5428 C   0  0  0  0  0  0  0  0  0  0  0  0
   37.0108   24.4351   31.2164 N   0  0  0  0  0  0  0  0  0  0  0  0
   35.7214   23.8891   30.8460 C   0  0  2  0  0  0  0  0  0  0  0  0
   35.7945   23.0962   29.7031 O   0  0  0  0  0  0  0  0  0  0  0  0
   34.4660   23.1693   29.2510 C   0  0  2  0  0  0  0  0  0  0  0  0
   34.2337   22.4226   27.9805 C   0  0  0  0  0  0  0  0  0  0  0  0
   32.9142   22.5208   27.5742 O   0  0  0  0  0  0  0  0  0  0  0  0
   32.6151   21.6868   26.1376 P   0  0  2  0  0  5  0  0  0  0  0  0
   33.1147   22.5427   24.9938 O   0  0  0  0  0  0  0  0  0  0  0  0
   30.9702   21.4433   25.9197 O   0  0  0  0  0  0  0  0  0  0  0  0
   33.4988   20.2652   26.1256 O   0  0  0  0  0  0  0  0  0  0  0  0
   32.7602   19.0282   26.9931 P   0  0  0  0  0  0  0  0  0  0  0  0
   32.5907   17.7783   26.1650 O   0  0  0  0  0  0  0  0  0  0  0  0
   31.2522   19.4342   27.6013 O   0  0  0  0  0  0  0  0  0  0  0  0
   33.8120   18.6171   28.2763 O   0  0  0  0  0  0  0  0  0  0  0  0
   34.3815   24.6730   29.0830 C   0  0  1  0  0  0  0  0  0  0  0  0
   33.1287   25.1219   28.7411 O   0  0  0  0  0  0  0  0  0  0  0  0
   34.7678   25.0335   30.5160 C   0  0  1  0  0  0  0  0  0  0  0  0
   33.6440   24.9178   31.3389 O   0  0  0  0  0  0  0  0  0  0  0  0
  1  2  1  0
  2  3  2  0
  3  4  1  0
  4  5  2  0
  5  6  1  0
  6  7  2  0
  7  8  1  0
  8  9  2  0
  9 10  1  0
 11 10  1  6
 11 12  1  0
 12 13  1  0
 13 14  1  6
 14 15  1  0
 15 16  1  0
 16 17  2  0
 16 18  1  6
 16 19  1  0
 19 20  1  0
 20 21  2  0
 20 22  1  0
 20 23  1  0
 13 24  1  0
 24 25  1  1
 24 26  1  0
 26 27  1  1
  7  2  1  0
 26 11  1  0
 10  6  1  0
M  END
>  <shape_align_shape_tanimoto>  (1) 
0.74312538640244463

>  <shape_align_color_tanimoto>  (1) 
0.11837311521608784

>  <metric>  (1) 
shape

>  <metric_score>  (1) 
0.743

>  <template_pid>  (1) 
6N9L

>  <template_shape_score>  (1) 
0.743

>  <template_color_score>  (1) 
0.118

>  <template_combo_score>  (1) 
0.431

$$$$
6N9L_color_pose
     RDKit          3D

 27 29  0  0  0  0  0  0  0  0999 V2000
   38.2970   26.2403   35.8287 N   0  0  0  0  0  0  0  0  0  0  0  0
   38.4119   25.8812   34.4515 C   0  0  0  0  0  0  0  0  0  0  0  0
   39.6187   25.6405   33.9163 N   0  0  0  0  0  0  0  0  0  0  0  0
   39.7779   25.3000   32.6277 C   0  0  0  0  0  0  0  0  0  0  0  0
   38.6832   25.1961   31.8426 N   0  0  0  0  0  0  0  0  0  0  0  0
   37.4506   25.4217   32.3095 C   0  0  0  0  0  0  0  0  0  0  0  0
   37.3063   25.7711   33.6379 C   0  0  0  0  0  0  0  0  0  0  0  0
   35.9891   25.9475   33.8819 N   0  0  0  0  0  0  0  0  0  0  0  0
   35.3015   25.7210   32.7528 C   0  0  0  0  0  0  0  0  0  0  0  0
   36.1959   25.3970   31.7816 N   0  0  0  0  0  0  0  0  0  0  0  0
   35.8600   25.0817   30.4226 C   0  0  2  0  0  0  0  0  0  0  0  0
   34.6893   24.2972   30.3446 O   0  0  0  0  0  0  0  0  0  0  0  0
   34.7280   23.9305   28.9842 C   0  0  2  0  0  0  0  0  0  0  0  0
   33.6321   22.9355   28.6775 C   0  0  0  0  0  0  0  0  0  0  0  0
   33.6180   22.5366   27.3544 O   0  0  0  0  0  0  0  0  0  0  0  0
   32.3905   21.4221   27.0097 P   0  0  2  0  0  5  0  0  0  0  0  0
   32.6863   20.9062   25.6103 O   0  0  0  0  0  0  0  0  0  0  0  0
   30.8979   22.1617   27.1304 O   0  0  0  0  0  0  0  0  0  0  0  0
   32.5777   20.1276   28.0561 O   0  0  0  0  0  0  0  0  0  0  0  0
   32.3296   18.6320   27.3436 P   0  0  0  0  0  0  0  0  0  0  0  0
   31.5304   18.6909   26.0843 O   0  0  0  0  0  0  0  0  0  0  0  0
   31.6298   17.6135   28.5023 O   0  0  0  0  0  0  0  0  0  0  0  0
   33.8327   17.9596   26.9565 O   0  0  0  0  0  0  0  0  0  0  0  0
   36.0939   23.3207   28.8986 C   0  0  1  0  0  0  0  0  0  0  0  0
   36.5868   23.3536   27.5914 O   0  0  0  0  0  0  0  0  0  0  0  0
   36.9291   24.2694   29.7341 C   0  0  1  0  0  0  0  0  0  0  0  0
   37.7204   25.1099   28.9577 O   0  0  0  0  0  0  0  0  0  0  0  0
  1  2  1  0
  2  3  2  0
  3  4  1  0
  4  5  2  0
  5  6  1  0
  6  7  2  0
  7  8  1  0
  8  9  2  0
  9 10  1  0
 11 10  1  1
 11 12  1  0
 12 13  1  0
 13 14  1  1
 14 15  1  0
 15 16  1  0
 16 17  2  0
 16 18  1  6
 16 19  1  0
 19 20  1  0
 20 21  2  0
 20 22  1  0
 20 23  1  0
 13 24  1  0
 24 25  1  6
 24 26  1  0
 26 27  1  6
  7  2  1  0
 26 11  1  0
 10  6  1  0
M  END
>  <shape_align_shape_tanimoto>  (2) 
0.6365920995305141

>  <shape_align_color_tanimoto>  (2) 
0.14911081697570955

>  <metric>  (2) 
color

>  <metric_score>  (2) 
0.149

>  <template_pid>  (2) 
6N9L

>  <template_shape_score>  (2) 
0.637

>  <template_color_score>  (2) 
0.149

>  <template_combo_score>  (2) 
0.393

$$$$
6N9L_combo_pose
     RDKit          3D

 27 29  0  0  0  0  0  0  0  0999 V2000
   40.3623   26.5651   33.6519 N   0  0  0  0  0  0  0  0  0  0  0  0
   39.0154   26.1349   33.5552 C   0  0  0  0  0  0  0  0  0  0  0  0
   38.1690   26.3847   34.5720 N   0  0  0  0  0  0  0  0  0  0  0  0
   36.8757   25.9915   34.5204 C   0  0  0  0  0  0  0  0  0  0  0  0
   36.4426   25.3384   33.4229 N   0  0  0  0  0  0  0  0  0  0  0  0
   37.2328   25.0598   32.3796 C   0  0  0  0  0  0  0  0  0  0  0  0
   38.5504   25.4650   32.4419 C   0  0  0  0  0  0  0  0  0  0  0  0
   39.1221   25.0716   31.2895 N   0  0  0  0  0  0  0  0  0  0  0  0
   38.1728   24.4408   30.5428 C   0  0  0  0  0  0  0  0  0  0  0  0
   37.0108   24.4351   31.2164 N   0  0  0  0  0  0  0  0  0  0  0  0
   35.7214   23.8891   30.8460 C   0  0  2  0  0  0  0  0  0  0  0  0
   35.7945   23.0962   29.7031 O   0  0  0  0  0  0  0  0  0  0  0  0
   34.4660   23.1693   29.2510 C   0  0  2  0  0  0  0  0  0  0  0  0
   34.2337   22.4226   27.9805 C   0  0  0  0  0  0  0  0  0  0  0  0
   32.9142   22.5208   27.5742 O   0  0  0  0  0  0  0  0  0  0  0  0
   32.6151   21.6868   26.1376 P   0  0  2  0  0  5  0  0  0  0  0  0
   33.1147   22.5427   24.9938 O   0  0  0  0  0  0  0  0  0  0  0  0
   30.9702   21.4433   25.9197 O   0  0  0  0  0  0  0  0  0  0  0  0
   33.4988   20.2652   26.1256 O   0  0  0  0  0  0  0  0  0  0  0  0
   32.7602   19.0282   26.9931 P   0  0  0  0  0  0  0  0  0  0  0  0
   32.5907   17.7783   26.1650 O   0  0  0  0  0  0  0  0  0  0  0  0
   31.2522   19.4342   27.6013 O   0  0  0  0  0  0  0  0  0  0  0  0
   33.8120   18.6171   28.2763 O   0  0  0  0  0  0  0  0  0  0  0  0
   34.3815   24.6730   29.0830 C   0  0  1  0  0  0  0  0  0  0  0  0
   33.1287   25.1219   28.7411 O   0  0  0  0  0  0  0  0  0  0  0  0
   34.7678   25.0335   30.5160 C   0  0  1  0  0  0  0  0  0  0  0  0
   33.6440   24.9178   31.3389 O   0  0  0  0  0  0  0  0  0  0  0  0
  1  2  1  0
  2  3  2  0
  3  4  1  0
  4  5  2  0
  5  6  1  0
  6  7  2  0
  7  8  1  0
  8  9  2  0
  9 10  1  0
 11 10  1  6
 11 12  1  0
 12 13  1  0
 13 14  1  6
 14 15  1  0
 15 16  1  0
 16 17  2  0
 16 18  1  6
 16 19  1  0
 19 20  1  0
 20 21  2  0
 20 22  1  0
 20 23  1  0
 13 24  1  0
 24 25  1  1
 24 26  1  0
 26 27  1  1
  7  2  1  0
 26 11  1  0
 10  6  1  0
M  END
>  <shape_align_shape_tanimoto>  (3) 
0.74312538640244463

>  <shape_align_color_tanimoto>  (3) 
0.11837311521608784

>  <metric>  (3) 
combo

>  <metric_score>  (3) 
0.431

>  <template_pid>  (3) 
6N9L

>  <template_shape_score>  (3) 
0.743

>  <template_color_score>  (3) 
0.118

>  <template_combo_score>  (3) 
0.431

$$$$
