2GG8_shape_pose
     RDKit          3D

 28 28  0  0  0  0  0  0  0  0999 V2000
    0.6158    1.2766    5.5834 C   0  0  0  0  0  0  0  0  0  0  0  0
    0.3652    0.7001    6.8477 O   0  0  0  0  0  0  0  0  0  0  0  0
    0.8838   -0.5287    7.2552 C   0  0  0  0  0  0  0  0  0  0  0  0
    1.6161   -1.1295    6.4160 O   0  0  0  0  0  0  0  0  0  0  0  0
    0.5783   -1.0787    8.6004 C   0  0  1  0  0  0  0  0  0  0  0  0
    1.7353   -1.5549    9.3783 C   0  0  0  0  0  0  0  0  0  0  0  0
    2.8211   -0.6377    9.7370 C   0  0  0  0  0  0  0  0  0  0  0  0
    2.4529    0.5464   10.5625 C   0  0  0  0  0  0  0  0  0  0  0  0
    3.5835   -0.1440    8.5336 C   0  0  0  0  0  0  0  0  0  0  0  0
   -0.3223   -0.2154    9.3408 N   0  0  0  0  0  0  0  0  0  0  0  0
   -1.6884   -0.6396    9.5416 C   0  0  0  0  0  0  0  0  0  0  0  0
   -2.0909   -1.7335    9.0823 O   0  0  0  0  0  0  0  0  0  0  0  0
   -2.6405    0.1972   10.2848 C   0  0  2  0  0  0  0  0  0  0  0  0
   -2.2241    0.0528   11.7713 C   0  0  0  0  0  0  0  0  0  0  0  0
   -3.9622   -0.4384   10.2110 N   0  0  0  0  0  0  0  0  0  0  0  0
   -5.0598    0.4670   10.1003 C   0  0  0  0  0  0  0  0  0  0  0  0
   -4.8200    1.7165   10.0821 O   0  0  0  0  0  0  0  0  0  0  0  0
   -6.4745    0.0350   10.0070 C   0  0  1  0  0  0  0  0  0  0  0  0
   -7.2376    1.2394   10.1696 O   0  0  0  0  0  0  0  0  0  0  0  0
   -6.7749   -0.3637    8.5900 C   0  0  2  0  0  0  0  0  0  0  0  0
   -8.2178   -0.5648    8.4400 N   0  0  0  0  0  0  0  0  0  0  0  0
   -6.0029   -1.4411    8.0114 C   0  0  0  0  0  0  0  0  0  0  0  0
   -4.8766   -1.1500    7.2346 C   0  0  0  0  0  0  0  0  0  0  0  0
   -4.1239   -2.1491    6.6423 C   0  0  0  0  0  0  0  0  0  0  0  0
   -4.5193   -3.4606    6.8417 C   0  0  0  0  0  0  0  0  0  0  0  0
   -3.7054   -4.5356    6.2002 C   0  0  0  0  0  0  0  0  0  0  0  0
   -5.6156   -3.7655    7.5976 C   0  0  0  0  0  0  0  0  0  0  0  0
   -6.3751   -2.7562    8.1954 C   0  0  0  0  0  0  0  0  0  0  0  0
  1  2  1  0
  2  3  1  0
  3  4  2  0
  3  5  1  0
  5  6  1  1
  6  7  1  0
  7  8  1  0
  7  9  1  0
  5 10  1  0
 10 11  1  0
 11 12  2  0
 11 13  1  0
 13 14  1  1
 13 15  1  0
 15 16  1  0
 16 17  2  0
 16 18  1  0
 18 19  1  6
 18 20  1  0
 20 21  1  1
 20 22  1  0
 22 23  2  0
 23 24  1  0
 24 25  2  0
 25 26  1  0
 25 27  1  0
 27 28  2  0
 28 22  1  0
M  CHG  1  21   1
M  END
>  <shape_align_shape_tanimoto>  (1) 
0.59291759920425824

>  <shape_align_color_tanimoto>  (1) 
0.022709972211286941

>  <metric>  (1) 
shape

>  <metric_score>  (1) 
0.593

>  <template_pid>  (1) 
2GG8

>  <template_shape_score>  (1) 
0.593

>  <template_color_score>  (1) 
0.023

>  <template_combo_score>  (1) 
0.308

$$$$
2GG8_color_pose
     RDKit          3D

 28 28  0  0  0  0  0  0  0  0999 V2000
    3.2364   -5.2852    8.7241 C   0  0  0  0  0  0  0  0  0  0  0  0
    2.4797   -4.4388    7.8369 O   0  0  0  0  0  0  0  0  0  0  0  0
    1.3710   -3.7578    8.2716 C   0  0  0  0  0  0  0  0  0  0  0  0
    1.0458   -3.9094    9.4902 O   0  0  0  0  0  0  0  0  0  0  0  0
    0.5537   -2.8609    7.3671 C   0  0  1  0  0  0  0  0  0  0  0  0
    0.3035   -3.4846    6.0582 C   0  0  0  0  0  0  0  0  0  0  0  0
   -0.3895   -4.7917    6.0014 C   0  0  0  0  0  0  0  0  0  0  0  0
   -1.7579   -4.7343    6.5932 C   0  0  0  0  0  0  0  0  0  0  0  0
   -0.5444   -5.1668    4.5223 C   0  0  0  0  0  0  0  0  0  0  0  0
   -0.5116   -2.3055    8.1149 N   0  0  0  0  0  0  0  0  0  0  0  0
   -0.2890   -0.9897    8.6805 C   0  0  0  0  0  0  0  0  0  0  0  0
    0.8278   -0.4001    8.4884 O   0  0  0  0  0  0  0  0  0  0  0  0
   -1.2807   -0.2663    9.4837 C   0  0  2  0  0  0  0  0  0  0  0  0
   -0.6634   -0.1347   10.9006 C   0  0  0  0  0  0  0  0  0  0  0  0
   -2.5887   -0.8301    9.5760 N   0  0  0  0  0  0  0  0  0  0  0  0
   -3.6756    0.0863    9.8095 C   0  0  0  0  0  0  0  0  0  0  0  0
   -3.3238    1.3091    9.9155 O   0  0  0  0  0  0  0  0  0  0  0  0
   -5.0656   -0.2498    9.9300 C   0  0  1  0  0  0  0  0  0  0  0  0
   -5.6777    0.9142   10.5217 O   0  0  0  0  0  0  0  0  0  0  0  0
   -5.9147   -0.5123    8.7605 C   0  0  2  0  0  0  0  0  0  0  0  0
   -7.2550   -0.7722    9.3317 N   0  0  0  0  0  0  0  0  0  0  0  0
   -5.6460   -1.6044    7.8605 C   0  0  0  0  0  0  0  0  0  0  0  0
   -5.1585   -1.2810    6.5742 C   0  0  0  0  0  0  0  0  0  0  0  0
   -4.8981   -2.2752    5.6542 C   0  0  0  0  0  0  0  0  0  0  0  0
   -5.0893   -3.6090    5.9168 C   0  0  0  0  0  0  0  0  0  0  0  0
   -4.7900   -4.5989    4.8625 C   0  0  0  0  0  0  0  0  0  0  0  0
   -5.5655   -3.9387    7.1735 C   0  0  0  0  0  0  0  0  0  0  0  0
   -5.8299   -2.9471    8.1051 C   0  0  0  0  0  0  0  0  0  0  0  0
  1  2  1  0
  2  3  1  0
  3  4  2  0
  3  5  1  0
  5  6  1  6
  6  7  1  0
  7  8  1  0
  7  9  1  0
  5 10  1  0
 10 11  1  0
 11 12  2  0
 11 13  1  0
 13 14  1  1
 13 15  1  0
 15 16  1  0
 16 17  2  0
 16 18  1  0
 18 19  1  6
 18 20  1  0
 20 21  1  1
 20 22  1  0
 22 23  2  0
 23 24  1  0
 24 25  2  0
 25 26  1  0
 25 27  1  0
 27 28  2  0
 28 22  1  0
M  CHG  1  21   1
M  END
>  <shape_align_shape_tanimoto>  (2) 
0.44785331158019248

>  <shape_align_color_tanimoto>  (2) 
0.081265990767515173

>  <metric>  (2) 
color

>  <metric_score>  (2) 
0.081

>  <template_pid>  (2) 
2GG8

>  <template_shape_score>  (2) 
0.448

>  <template_color_score>  (2) 
0.081

>  <template_combo_score>  (2) 
0.265

$$$$
2GG8_combo_pose
     RDKit          3D

 28 28  0  0  0  0  0  0  0  0999 V2000
   -0.1111   -4.3873    8.2800 C   0  0  0  0  0  0  0  0  0  0  0  0
    0.0299   -3.0245    8.6693 O   0  0  0  0  0  0  0  0  0  0  0  0
    0.9320   -2.1747    8.0816 C   0  0  0  0  0  0  0  0  0  0  0  0
    1.6829   -2.6114    7.1453 O   0  0  0  0  0  0  0  0  0  0  0  0
    1.0923   -0.7332    8.4820 C   0  0  1  0  0  0  0  0  0  0  0  0
    0.8611    0.1200    7.2903 C   0  0  0  0  0  0  0  0  0  0  0  0
    0.9881    1.5973    7.4924 C   0  0  0  0  0  0  0  0  0  0  0  0
    0.7241    2.2760    6.1365 C   0  0  0  0  0  0  0  0  0  0  0  0
   -0.0388    2.1925    8.4240 C   0  0  0  0  0  0  0  0  0  0  0  0
    0.1277   -0.4999    9.5266 N   0  0  0  0  0  0  0  0  0  0  0  0
   -1.2859   -0.7196    9.3448 C   0  0  0  0  0  0  0  0  0  0  0  0
   -1.7196   -1.1289    8.2422 O   0  0  0  0  0  0  0  0  0  0  0  0
   -2.1412   -0.4320   10.5221 C   0  0  2  0  0  0  0  0  0  0  0  0
   -1.8345   -1.3858   11.6689 C   0  0  0  0  0  0  0  0  0  0  0  0
   -3.5117   -0.7090   10.1415 N   0  0  0  0  0  0  0  0  0  0  0  0
   -4.4470    0.3460   10.2236 C   0  0  0  0  0  0  0  0  0  0  0  0
   -4.0060    1.4640   10.6226 O   0  0  0  0  0  0  0  0  0  0  0  0
   -5.8701    0.2637    9.8936 C   0  0  1  0  0  0  0  0  0  0  0  0
   -6.4262    1.5438   10.1471 O   0  0  0  0  0  0  0  0  0  0  0  0
   -6.1740   -0.0411    8.4647 C   0  0  2  0  0  0  0  0  0  0  0  0
   -7.6415   -0.0180    8.3452 N   0  0  0  0  0  0  0  0  0  0  0  0
   -5.7135   -1.3640    8.0002 C   0  0  0  0  0  0  0  0  0  0  0  0
   -6.2451   -2.5519    8.4343 C   0  0  0  0  0  0  0  0  0  0  0  0
   -5.8036   -3.7912    7.9716 C   0  0  0  0  0  0  0  0  0  0  0  0
   -4.7933   -3.8215    7.0416 C   0  0  0  0  0  0  0  0  0  0  0  0
   -4.2934   -5.1252    6.5228 C   0  0  0  0  0  0  0  0  0  0  0  0
   -4.2448   -2.6403    6.5916 C   0  0  0  0  0  0  0  0  0  0  0  0
   -4.7003   -1.4311    7.0658 C   0  0  0  0  0  0  0  0  0  0  0  0
  1  2  1  0
  2  3  1  0
  3  4  2  0
  3  5  1  0
  5  6  1  6
  6  7  1  0
  7  8  1  0
  7  9  1  0
  5 10  1  0
 10 11  1  0
 11 12  2  0
 11 13  1  0
 13 14  1  1
 13 15  1  0
 15 16  1  0
 16 17  2  0
 16 18  1  0
 18 19  1  6
 18 20  1  0
 20 21  1  1
 20 22  1  0
 22 23  2  0
 23 24  1  0
 24 25  2  0
 25 26  1  0
 25 27  1  0
 27 28  2  0
 28 22  1  0
M  CHG  1  21   1
M  END
>  <shape_align_shape_tanimoto>  (3) 
0.57570353571262023

>  <shape_align_color_tanimoto>  (3) 
0.066123012577695317

>  <metric>  (3) 
combo

>  <metric_score>  (3) 
0.321

>  <template_pid>  (3) 
2GG8

>  <template_shape_score>  (3) 
0.576

>  <template_color_score>  (3) 
0.066

>  <template_combo_score>  (3) 
0.321

$$$$
