6DZ3_shape_pose
     RDKit          3D

 31 34  0  0  0  0  0  0  0  0999 V2000
  -15.6684   18.3689   59.2550 C   0  0  0  0  0  0  0  0  0  0  0  0
  -14.4668   18.5841   60.1588 C   0  0  0  0  0  0  0  0  0  0  0  0
  -14.0846   17.2379   60.7121 C   0  0  0  0  0  0  0  0  0  0  0  0
  -12.9061   17.2591   61.6329 C   0  0  0  0  0  0  0  0  0  0  0  0
  -13.1259   18.1023   62.7995 N   0  0  0  0  0  0  0  0  0  0  0  0
  -13.6602   17.6967   63.9772 C   0  0  0  0  0  0  0  0  0  0  0  0
  -13.7271   18.7390   64.8673 C   0  0  0  0  0  0  0  0  0  0  0  0
  -14.1801   18.8548   66.2468 C   0  0  0  0  0  0  0  0  0  0  0  0
  -14.7618   17.6439   66.8778 C   0  0  0  0  0  0  0  0  0  0  0  0
  -16.0091   17.1099   66.2697 C   0  0  0  0  0  0  0  0  0  0  0  0
  -17.3656   18.3188   66.3097 S   0  0  0  0  0  0  0  0  0  0  0  0
  -18.8412   17.6033   65.5164 C   0  0  0  0  0  0  0  0  0  0  0  0
  -18.4920   17.4362   64.0536 C   0  0  1  0  0  0  0  0  0  0  0  0
  -19.6249   16.8466   63.2438 C   0  0  0  0  0  0  0  0  0  0  0  0
  -19.4796   17.5827   61.9793 N   0  0  1  0  0  0  0  0  0  0  0  0
  -20.6093   17.3378   61.1098 C   0  0  0  0  0  0  0  0  0  0  0  0
  -21.1551   18.6547   60.6977 C   0  0  0  0  0  0  0  0  0  0  0  0
  -22.2982   19.2118   61.2274 C   0  0  0  0  0  0  0  0  0  0  0  0
  -22.5116   20.4214   60.6316 N   0  0  0  0  0  0  0  0  0  0  0  0
  -21.5232   20.6302   59.7396 C   0  0  0  0  0  0  0  0  0  0  0  0
  -21.2284   21.6630   58.8622 C   0  0  0  0  0  0  0  0  0  0  0  0
  -22.1328   22.7693   58.8637 N   0  0  0  0  0  0  0  0  0  0  0  0
  -20.1497   21.6054   58.0665 N   0  0  0  0  0  0  0  0  0  0  0  0
  -19.3223   20.5395   58.0993 C   0  0  0  0  0  0  0  0  0  0  0  0
  -19.5697   19.5018   58.9433 N   0  0  0  0  0  0  0  0  0  0  0  0
  -20.6609   19.5377   59.7625 C   0  0  0  0  0  0  0  0  0  0  0  0
  -19.4255   18.9489   62.4640 C   0  0  0  0  0  0  0  0  0  0  0  0
  -18.2849   18.8251   63.4848 C   0  0  2  0  0  0  0  0  0  0  0  0
  -17.1118   18.8237   62.7663 O   0  0  0  0  0  0  0  0  0  0  0  0
  -13.2060   19.8001   64.1729 N   0  0  0  0  0  0  0  0  0  0  0  0
  -12.8660   19.3867   62.9668 N   0  0  0  0  0  0  0  0  0  0  0  0
  1  2  1  0
  2  3  1  0
  3  4  1  0
  4  5  1  0
  5  6  1  0
  6  7  2  0
  7  8  1  0
  8  9  1  0
  9 10  1  0
 10 11  1  0
 11 12  1  0
 13 12  1  1
 13 14  1  0
 14 15  1  0
 15 16  1  6
 16 17  1  0
 17 18  2  0
 18 19  1  0
 19 20  1  0
 20 21  2  0
 21 22  1  0
 21 23  1  0
 23 24  2  0
 24 25  1  0
 25 26  2  0
 15 27  1  0
 27 28  1  0
 28 29  1  6
  7 30  1  0
 30 31  2  0
 31  5  1  0
 28 13  1  0
 26 17  1  0
 26 20  1  0
M  CHG  1  15   1
M  END
>  <shape_align_shape_tanimoto>  (1) 
0.57157810633715389

>  <shape_align_color_tanimoto>  (1) 
0.10149782823093295

>  <metric>  (1) 
shape

>  <metric_score>  (1) 
0.572

>  <template_pid>  (1) 
6DZ3

>  <template_shape_score>  (1) 
0.572

>  <template_color_score>  (1) 
0.101

>  <template_combo_score>  (1) 
0.337

$$$$
6DZ3_color_pose
     RDKit          3D

 31 34  0  0  0  0  0  0  0  0999 V2000
  -25.1037   23.0502   60.1385 C   0  0  0  0  0  0  0  0  0  0  0  0
  -24.2390   23.0173   58.8948 C   0  0  0  0  0  0  0  0  0  0  0  0
  -23.2592   21.8578   58.9495 C   0  0  0  0  0  0  0  0  0  0  0  0
  -22.3453   21.9720   60.1521 C   0  0  0  0  0  0  0  0  0  0  0  0
  -21.4612   20.8266   60.1051 N   0  0  0  0  0  0  0  0  0  0  0  0
  -21.6855   19.6384   60.6670 C   0  0  0  0  0  0  0  0  0  0  0  0
  -20.5879   18.8627   60.3693 C   0  0  0  0  0  0  0  0  0  0  0  0
  -20.4126   17.4488   60.8037 C   0  0  0  0  0  0  0  0  0  0  0  0
  -21.6069   16.9750   61.6159 C   0  0  0  0  0  0  0  0  0  0  0  0
  -21.3983   15.5248   62.0461 C   0  0  0  0  0  0  0  0  0  0  0  0
  -19.9047   15.4328   63.0545 S   0  0  0  0  0  0  0  0  0  0  0  0
  -20.0960   16.3192   64.6222 C   0  0  0  0  0  0  0  0  0  0  0  0
  -18.8205   16.2116   65.4246 C   0  0  1  0  0  0  0  0  0  0  0  0
  -17.6388   16.7970   64.7059 C   0  0  0  0  0  0  0  0  0  0  0  0
  -17.1829   17.9364   65.4539 N   0  0  1  0  0  0  0  0  0  0  0  0
  -16.7869   19.0676   64.6866 C   0  0  0  0  0  0  0  0  0  0  0  0
  -16.2197   18.7786   63.3656 C   0  0  0  0  0  0  0  0  0  0  0  0
  -16.7570   18.8959   62.0980 C   0  0  0  0  0  0  0  0  0  0  0  0
  -15.8398   18.5065   61.1934 N   0  0  0  0  0  0  0  0  0  0  0  0
  -14.7065   18.1328   61.8185 C   0  0  0  0  0  0  0  0  0  0  0  0
  -13.4710   17.6549   61.3671 C   0  0  0  0  0  0  0  0  0  0  0  0
  -13.2271   17.4803   59.9752 N   0  0  0  0  0  0  0  0  0  0  0  0
  -12.5228   17.3673   62.3032 N   0  0  0  0  0  0  0  0  0  0  0  0
  -12.7702   17.5383   63.6158 C   0  0  0  0  0  0  0  0  0  0  0  0
  -13.9507   17.9963   64.0700 N   0  0  0  0  0  0  0  0  0  0  0  0
  -14.9191   18.2940   63.1784 C   0  0  0  0  0  0  0  0  0  0  0  0
  -18.2754   18.2988   66.3379 C   0  0  0  0  0  0  0  0  0  0  0  0
  -18.9525   16.9987   66.7108 C   0  0  2  0  0  0  0  0  0  0  0  0
  -18.2516   16.3575   67.7311 O   0  0  0  0  0  0  0  0  0  0  0  0
  -19.7305   19.6037   59.6354 N   0  0  0  0  0  0  0  0  0  0  0  0
  -20.2893   20.7992   59.4890 N   0  0  0  0  0  0  0  0  0  0  0  0
  1  2  1  0
  2  3  1  0
  3  4  1  0
  4  5  1  0
  5  6  1  0
  6  7  2  0
  7  8  1  0
  8  9  1  0
  9 10  1  0
 10 11  1  0
 11 12  1  0
 13 12  1  6
 13 14  1  0
 14 15  1  0
 15 16  1  6
 16 17  1  0
 17 18  2  0
 18 19  1  0
 19 20  1  0
 20 21  2  0
 21 22  1  0
 21 23  1  0
 23 24  2  0
 24 25  1  0
 25 26  2  0
 15 27  1  0
 27 28  1  0
 28 29  1  1
  7 30  1  0
 30 31  2  0
 31  5  1  0
 28 13  1  0
 26 17  1  0
 26 20  1  0
M  CHG  1  15   1
M  END
>  <shape_align_shape_tanimoto>  (2) 
0.47902179011483842

>  <shape_align_color_tanimoto>  (2) 
0.12760896050577655

>  <metric>  (2) 
color

>  <metric_score>  (2) 
0.128

>  <template_pid>  (2) 
6DZ3

>  <template_shape_score>  (2) 
0.479

>  <template_color_score>  (2) 
0.128

>  <template_combo_score>  (2) 
0.303

$$$$
6DZ3_combo_pose
     RDKit          3D

 31 34  0  0  0  0  0  0  0  0999 V2000
  -15.6684   18.3689   59.2550 C   0  0  0  0  0  0  0  0  0  0  0  0
  -14.4668   18.5841   60.1588 C   0  0  0  0  0  0  0  0  0  0  0  0
  -14.0846   17.2379   60.7121 C   0  0  0  0  0  0  0  0  0  0  0  0
  -12.9061   17.2591   61.6329 C   0  0  0  0  0  0  0  0  0  0  0  0
  -13.1259   18.1023   62.7995 N   0  0  0  0  0  0  0  0  0  0  0  0
  -13.6602   17.6967   63.9772 C   0  0  0  0  0  0  0  0  0  0  0  0
  -13.7271   18.7390   64.8673 C   0  0  0  0  0  0  0  0  0  0  0  0
  -14.1801   18.8548   66.2468 C   0  0  0  0  0  0  0  0  0  0  0  0
  -14.7618   17.6439   66.8778 C   0  0  0  0  0  0  0  0  0  0  0  0
  -16.0091   17.1099   66.2697 C   0  0  0  0  0  0  0  0  0  0  0  0
  -17.3656   18.3188   66.3097 S   0  0  0  0  0  0  0  0  0  0  0  0
  -18.8412   17.6033   65.5164 C   0  0  0  0  0  0  0  0  0  0  0  0
  -18.4920   17.4362   64.0536 C   0  0  1  0  0  0  0  0  0  0  0  0
  -19.6249   16.8466   63.2438 C   0  0  0  0  0  0  0  0  0  0  0  0
  -19.4796   17.5827   61.9793 N   0  0  1  0  0  0  0  0  0  0  0  0
  -20.6093   17.3378   61.1098 C   0  0  0  0  0  0  0  0  0  0  0  0
  -21.1551   18.6547   60.6977 C   0  0  0  0  0  0  0  0  0  0  0  0
  -22.2982   19.2118   61.2274 C   0  0  0  0  0  0  0  0  0  0  0  0
  -22.5116   20.4214   60.6316 N   0  0  0  0  0  0  0  0  0  0  0  0
  -21.5232   20.6302   59.7396 C   0  0  0  0  0  0  0  0  0  0  0  0
  -21.2284   21.6630   58.8622 C   0  0  0  0  0  0  0  0  0  0  0  0
  -22.1328   22.7693   58.8637 N   0  0  0  0  0  0  0  0  0  0  0  0
  -20.1497   21.6054   58.0665 N   0  0  0  0  0  0  0  0  0  0  0  0
  -19.3223   20.5395   58.0993 C   0  0  0  0  0  0  0  0  0  0  0  0
  -19.5697   19.5018   58.9433 N   0  0  0  0  0  0  0  0  0  0  0  0
  -20.6609   19.5377   59.7625 C   0  0  0  0  0  0  0  0  0  0  0  0
  -19.4255   18.9489   62.4640 C   0  0  0  0  0  0  0  0  0  0  0  0
  -18.2849   18.8251   63.4848 C   0  0  2  0  0  0  0  0  0  0  0  0
  -17.1118   18.8237   62.7663 O   0  0  0  0  0  0  0  0  0  0  0  0
  -13.2060   19.8001   64.1729 N   0  0  0  0  0  0  0  0  0  0  0  0
  -12.8660   19.3867   62.9668 N   0  0  0  0  0  0  0  0  0  0  0  0
  1  2  1  0
  2  3  1  0
  3  4  1  0
  4  5  1  0
  5  6  1  0
  6  7  2  0
  7  8  1  0
  8  9  1  0
  9 10  1  0
 10 11  1  0
 11 12  1  0
 13 12  1  1
 13 14  1  0
 14 15  1  0
 15 16  1  6
 16 17  1  0
 17 18  2  0
 18 19  1  0
 19 20  1  0
 20 21  2  0
 21 22  1  0
 21 23  1  0
 23 24  2  0
 24 25  1  0
 25 26  2  0
 15 27  1  0
 27 28  1  0
 28 29  1  6
  7 30  1  0
 30 31  2  0
 31  5  1  0
 28 13  1  0
 26 17  1  0
 26 20  1  0
M  CHG  1  15   1
M  END
>  <shape_align_shape_tanimoto>  (3) 
0.57157810633715389

>  <shape_align_color_tanimoto>  (3) 
0.10149782823093295

>  <metric>  (3) 
combo

>  <metric_score>  (3) 
0.337

>  <template_pid>  (3) 
6DZ3

>  <template_shape_score>  (3) 
0.572

>  <template_color_score>  (3) 
0.101

>  <template_combo_score>  (3) 
0.337

$$$$
