5SZ4_shape_pose
     RDKit          3D

 16 17  0  0  0  0  0  0  0  0999 V2000
   -5.8359    1.1017   18.5403 N   0  0  0  0  0  0  0  0  0  0  0  0
   -5.8129    0.8708   16.8088 S   0  0  0  0  0  0  0  0  0  0  0  0
   -5.1557   -0.4118   16.4561 O   0  0  0  0  0  0  0  0  0  0  0  0
   -7.2540    0.8407   16.3862 O   0  0  0  0  0  0  0  0  0  0  0  0
   -5.0580    2.2599   16.0402 C   0  0  0  0  0  0  0  0  0  0  0  0
   -5.8457    3.3475   15.6455 C   0  0  0  0  0  0  0  0  0  0  0  0
   -5.2286    4.4377   15.0388 C   0  0  0  0  0  0  0  0  0  0  0  0
   -3.8608    4.4312   14.8369 C   0  0  0  0  0  0  0  0  0  0  0  0
   -3.2910    5.6120   14.1948 C   0  0  0  0  0  0  0  0  0  0  0  0
   -2.0021    5.9528   14.5521 C   0  0  0  0  0  0  0  0  0  0  0  0
   -1.3500    7.0579   14.0082 C   0  0  0  0  0  0  0  0  0  0  0  0
   -2.0694    7.7908   13.0914 C   0  0  0  0  0  0  0  0  0  0  0  0
   -3.3595    7.4755   12.7137 C   0  0  0  0  0  0  0  0  0  0  0  0
   -3.9938    6.3608   13.2737 C   0  0  0  0  0  0  0  0  0  0  0  0
   -3.0595    3.3690   15.2177 C   0  0  0  0  0  0  0  0  0  0  0  0
   -3.6968    2.3006   15.8170 C   0  0  0  0  0  0  0  0  0  0  0  0
  1  2  1  0
  2  3  2  0
  2  4  2  0
  2  5  1  0
  5  6  2  0
  6  7  1  0
  7  8  2  0
  8  9  1  0
  9 10  2  0
 10 11  1  0
 11 12  2  0
 12 13  1  0
 13 14  2  0
  8 15  1  0
 15 16  2  0
 16  5  1  0
 14  9  1  0
M  END
>  <shape_align_shape_tanimoto>  (1) 
0.87721361767320005

>  <shape_align_color_tanimoto>  (1) 
0.13438427435965386

>  <metric>  (1) 
shape

>  <metric_score>  (1) 
0.877

>  <template_pid>  (1) 
5SZ4

>  <template_shape_score>  (1) 
0.877

>  <template_color_score>  (1) 
0.134

>  <template_combo_score>  (1) 
0.506

$$$$
5SZ4_color_pose
     RDKit          3D

 16 17  0  0  0  0  0  0  0  0999 V2000
   -5.5758   -0.5231   15.9067 N   0  0  0  0  0  0  0  0  0  0  0  0
   -5.8979    0.8488   16.9315 S   0  0  0  0  0  0  0  0  0  0  0  0
   -5.3568    0.6702   18.3016 O   0  0  0  0  0  0  0  0  0  0  0  0
   -7.3929    1.0485   16.8997 O   0  0  0  0  0  0  0  0  0  0  0  0
   -5.1828    2.2299   16.0995 C   0  0  0  0  0  0  0  0  0  0  0  0
   -3.8607    2.4952   16.3870 C   0  0  0  0  0  0  0  0  0  0  0  0
   -3.2632    3.5679   15.7602 C   0  0  0  0  0  0  0  0  0  0  0  0
   -3.9469    4.3713   14.8645 C   0  0  0  0  0  0  0  0  0  0  0  0
   -3.2837    5.4994   14.2177 C   0  0  0  0  0  0  0  0  0  0  0  0
   -1.9379    5.4022   13.9463 C   0  0  0  0  0  0  0  0  0  0  0  0
   -1.2266    6.4152   13.3441 C   0  0  0  0  0  0  0  0  0  0  0  0
   -1.9288    7.5698   13.0099 C   0  0  0  0  0  0  0  0  0  0  0  0
   -3.2800    7.6567   13.2870 C   0  0  0  0  0  0  0  0  0  0  0  0
   -3.9787    6.6552   13.8814 C   0  0  0  0  0  0  0  0  0  0  0  0
   -5.2885    4.0841   14.5869 C   0  0  0  0  0  0  0  0  0  0  0  0
   -5.9151    3.0009   15.2112 C   0  0  0  0  0  0  0  0  0  0  0  0
  1  2  1  0
  2  3  2  0
  2  4  2  0
  2  5  1  0
  5  6  2  0
  6  7  1  0
  7  8  2  0
  8  9  1  0
  9 10  2  0
 10 11  1  0
 11 12  2  0
 12 13  1  0
 13 14  2  0
  8 15  1  0
 15 16  2  0
 16  5  1  0
 14  9  1  0
M  END
>  <shape_align_shape_tanimoto>  (2) 
0.85400108351127901

>  <shape_align_color_tanimoto>  (2) 
0.1657581400735558

>  <metric>  (2) 
color

>  <metric_score>  (2) 
0.166

>  <template_pid>  (2) 
5SZ4

>  <template_shape_score>  (2) 
0.854

>  <template_color_score>  (2) 
0.166

>  <template_combo_score>  (2) 
0.510

$$$$
5SZ4_combo_pose
     RDKit          3D

 16 17  0  0  0  0  0  0  0  0999 V2000
   -5.5758   -0.5231   15.9067 N   0  0  0  0  0  0  0  0  0  0  0  0
   -5.8979    0.8488   16.9315 S   0  0  0  0  0  0  0  0  0  0  0  0
   -5.3568    0.6702   18.3016 O   0  0  0  0  0  0  0  0  0  0  0  0
   -7.3929    1.0485   16.8997 O   0  0  0  0  0  0  0  0  0  0  0  0
   -5.1828    2.2299   16.0995 C   0  0  0  0  0  0  0  0  0  0  0  0
   -3.8607    2.4952   16.3870 C   0  0  0  0  0  0  0  0  0  0  0  0
   -3.2632    3.5679   15.7602 C   0  0  0  0  0  0  0  0  0  0  0  0
   -3.9469    4.3713   14.8645 C   0  0  0  0  0  0  0  0  0  0  0  0
   -3.2837    5.4994   14.2177 C   0  0  0  0  0  0  0  0  0  0  0  0
   -1.9379    5.4022   13.9463 C   0  0  0  0  0  0  0  0  0  0  0  0
   -1.2266    6.4152   13.3441 C   0  0  0  0  0  0  0  0  0  0  0  0
   -1.9288    7.5698   13.0099 C   0  0  0  0  0  0  0  0  0  0  0  0
   -3.2800    7.6567   13.2870 C   0  0  0  0  0  0  0  0  0  0  0  0
   -3.9787    6.6552   13.8814 C   0  0  0  0  0  0  0  0  0  0  0  0
   -5.2885    4.0841   14.5869 C   0  0  0  0  0  0  0  0  0  0  0  0
   -5.9151    3.0009   15.2112 C   0  0  0  0  0  0  0  0  0  0  0  0
  1  2  1  0
  2  3  2  0
  2  4  2  0
  2  5  1  0
  5  6  2  0
  6  7  1  0
  7  8  2  0
  8  9  1  0
  9 10  2  0
 10 11  1  0
 11 12  2  0
 12 13  1  0
 13 14  2  0
  8 15  1  0
 15 16  2  0
 16  5  1  0
 14  9  1  0
M  END
>  <shape_align_shape_tanimoto>  (3) 
0.85400108351127901

>  <shape_align_color_tanimoto>  (3) 
0.1657581400735558

>  <metric>  (3) 
combo

>  <metric_score>  (3) 
0.510

>  <template_pid>  (3) 
5SZ4

>  <template_shape_score>  (3) 
0.854

>  <template_color_score>  (3) 
0.166

>  <template_combo_score>  (3) 
0.510

$$$$
