5ORK_shape_pose
     RDKit          3D

 16 17  0  0  0  0  0  0  0  0999 V2000
 -145.4351 -173.7223  361.3808 N   0  0  0  0  0  0  0  0  0  0  0  0
 -144.9413 -172.4687  360.7896 C   0  0  0  0  0  0  0  0  0  0  0  0
 -143.5378 -172.2379  361.2554 C   0  0  0  0  0  0  0  0  0  0  0  0
 -142.4999 -172.7536  360.5018 C   0  0  0  0  0  0  0  0  0  0  0  0
 -141.2015 -172.5460  360.9232 C   0  0  0  0  0  0  0  0  0  0  0  0
 -140.8870 -171.8423  362.0706 C   0  0  0  0  0  0  0  0  0  0  0  0
 -139.4877 -171.6665  362.4480 C   0  0  0  0  0  0  0  0  0  0  0  0
 -138.7262 -170.5953  362.0289 C   0  0  0  0  0  0  0  0  0  0  0  0
 -137.3965 -170.4916  362.4280 C   0  0  0  0  0  0  0  0  0  0  0  0
 -136.8624 -171.4625  363.2365 C   0  0  0  0  0  0  0  0  0  0  0  0
 -137.6088 -172.5512  363.6721 C   0  0  0  0  0  0  0  0  0  0  0  0
 -138.9222 -172.6341  363.2653 C   0  0  0  0  0  0  0  0  0  0  0  0
 -139.6636 -173.6975  363.6865 F   0  0  0  0  0  0  0  0  0  0  0  0
 -141.9363 -171.3346  362.8105 C   0  0  0  0  0  0  0  0  0  0  0  0
 -141.5408 -170.4421  364.2655 Cl  0  0  0  0  0  0  0  0  0  0  0  0
 -143.2674 -171.5224  362.4186 C   0  0  0  0  0  0  0  0  0  0  0  0
  1  2  1  0
  2  3  1  0
  3  4  2  0
  4  5  1  0
  5  6  2  0
  6  7  1  0
  7  8  2  0
  8  9  1  0
  9 10  2  0
 10 11  1  0
 11 12  2  0
 12 13  1  0
  6 14  1  0
 14 15  1  0
 14 16  2  0
 16  3  1  0
 12  7  1  0
M  CHG  1   1   1
M  END
>  <shape_align_shape_tanimoto>  (1) 
0.35049296370833738

>  <shape_align_color_tanimoto>  (1) 
0.024288997153855685

>  <metric>  (1) 
shape

>  <metric_score>  (1) 
0.350

>  <template_pid>  (1) 
5ORK

>  <template_shape_score>  (1) 
0.350

>  <template_color_score>  (1) 
0.024

>  <template_combo_score>  (1) 
0.187

$$$$
5ORK_color_pose
     RDKit          3D

 16 17  0  0  0  0  0  0  0  0999 V2000
 -137.1448 -172.3007  363.2139 N   0  0  0  0  0  0  0  0  0  0  0  0
 -137.8447 -171.0831  362.9056 C   0  0  0  0  0  0  0  0  0  0  0  0
 -139.2598 -171.4309  362.5965 C   0  0  0  0  0  0  0  0  0  0  0  0
 -139.5781 -171.7123  361.2842 C   0  0  0  0  0  0  0  0  0  0  0  0
 -140.8633 -172.0442  360.9056 C   0  0  0  0  0  0  0  0  0  0  0  0
 -141.8618 -172.0978  361.8604 C   0  0  0  0  0  0  0  0  0  0  0  0
 -143.2286 -172.4472  361.4791 C   0  0  0  0  0  0  0  0  0  0  0  0
 -143.6968 -173.7453  361.4658 C   0  0  0  0  0  0  0  0  0  0  0  0
 -145.0186 -174.0067  361.0894 C   0  0  0  0  0  0  0  0  0  0  0  0
 -145.8797 -172.9801  360.7251 C   0  0  0  0  0  0  0  0  0  0  0  0
 -145.4062 -171.6739  360.7392 C   0  0  0  0  0  0  0  0  0  0  0  0
 -144.0989 -171.4387  361.1137 C   0  0  0  0  0  0  0  0  0  0  0  0
 -143.6807 -170.1525  361.1129 F   0  0  0  0  0  0  0  0  0  0  0  0
 -141.5311 -171.8115  363.1861 C   0  0  0  0  0  0  0  0  0  0  0  0
 -142.8128 -171.8890  364.3587 Cl  0  0  0  0  0  0  0  0  0  0  0  0
 -140.2451 -171.4797  363.5637 C   0  0  0  0  0  0  0  0  0  0  0  0
  1  2  1  0
  2  3  1  0
  3  4  2  0
  4  5  1  0
  5  6  2  0
  6  7  1  0
  7  8  2  0
  8  9  1  0
  9 10  2  0
 10 11  1  0
 11 12  2  0
 12 13  1  0
  6 14  1  0
 14 15  1  0
 14 16  2  0
 16  3  1  0
 12  7  1  0
M  CHG  1   1   1
M  END
>  <shape_align_shape_tanimoto>  (2) 
0.3074312191739037

>  <shape_align_color_tanimoto>  (2) 
0.11895124781767887

>  <metric>  (2) 
color

>  <metric_score>  (2) 
0.119

>  <template_pid>  (2) 
5ORK

>  <template_shape_score>  (2) 
0.307

>  <template_color_score>  (2) 
0.119

>  <template_combo_score>  (2) 
0.213

$$$$
5ORK_combo_pose
     RDKit          3D

 16 17  0  0  0  0  0  0  0  0999 V2000
 -137.1448 -172.3007  363.2139 N   0  0  0  0  0  0  0  0  0  0  0  0
 -137.8447 -171.0831  362.9056 C   0  0  0  0  0  0  0  0  0  0  0  0
 -139.2598 -171.4309  362.5965 C   0  0  0  0  0  0  0  0  0  0  0  0
 -139.5781 -171.7123  361.2842 C   0  0  0  0  0  0  0  0  0  0  0  0
 -140.8633 -172.0442  360.9056 C   0  0  0  0  0  0  0  0  0  0  0  0
 -141.8618 -172.0978  361.8604 C   0  0  0  0  0  0  0  0  0  0  0  0
 -143.2286 -172.4472  361.4791 C   0  0  0  0  0  0  0  0  0  0  0  0
 -143.6968 -173.7453  361.4658 C   0  0  0  0  0  0  0  0  0  0  0  0
 -145.0186 -174.0067  361.0894 C   0  0  0  0  0  0  0  0  0  0  0  0
 -145.8797 -172.9801  360.7251 C   0  0  0  0  0  0  0  0  0  0  0  0
 -145.4062 -171.6739  360.7392 C   0  0  0  0  0  0  0  0  0  0  0  0
 -144.0989 -171.4387  361.1137 C   0  0  0  0  0  0  0  0  0  0  0  0
 -143.6807 -170.1525  361.1129 F   0  0  0  0  0  0  0  0  0  0  0  0
 -141.5311 -171.8115  363.1861 C   0  0  0  0  0  0  0  0  0  0  0  0
 -142.8128 -171.8890  364.3587 Cl  0  0  0  0  0  0  0  0  0  0  0  0
 -140.2451 -171.4797  363.5637 C   0  0  0  0  0  0  0  0  0  0  0  0
  1  2  1  0
  2  3  1  0
  3  4  2  0
  4  5  1  0
  5  6  2  0
  6  7  1  0
  7  8  2  0
  8  9  1  0
  9 10  2  0
 10 11  1  0
 11 12  2  0
 12 13  1  0
  6 14  1  0
 14 15  1  0
 14 16  2  0
 16  3  1  0
 12  7  1  0
M  CHG  1   1   1
M  END
>  <shape_align_shape_tanimoto>  (3) 
0.3074312191739037

>  <shape_align_color_tanimoto>  (3) 
0.11895124781767887

>  <metric>  (3) 
combo

>  <metric_score>  (3) 
0.213

>  <template_pid>  (3) 
5ORK

>  <template_shape_score>  (3) 
0.307

>  <template_color_score>  (3) 
0.119

>  <template_combo_score>  (3) 
0.213

$$$$
