1JD6_shape_pose
     RDKit          3D

 66 69  0  0  0  0  0  0  0  0999 V2000
   15.1136    1.8761   29.3613 C   0  0  0  0  0  0  0  0  0  0  0  0
   15.1701    1.2194   30.7245 C   0  0  0  0  0  0  0  0  0  0  0  0
   16.3922    1.7737   31.4268 C   0  0  0  0  0  0  0  0  0  0  0  0
   15.2603   -0.2842   30.5810 C   0  0  0  0  0  0  0  0  0  0  0  0
   14.0688   -0.8109   29.8533 C   0  0  2  0  0  0  0  0  0  0  0  0
   12.8310   -0.5154   30.5379 N   0  0  0  0  0  0  0  0  0  0  0  0
   11.7028    0.1138   29.9759 C   0  0  0  0  0  0  0  0  0  0  0  0
   11.7790    0.4430   28.7565 O   0  0  0  0  0  0  0  0  0  0  0  0
   10.5046    0.3655   30.8005 C   0  0  2  0  0  0  0  0  0  0  0  0
   10.1572    1.8539   30.8838 C   0  0  0  0  0  0  0  0  0  0  0  0
    9.8935    2.3744   29.5189 C   0  0  0  0  0  0  0  0  0  0  0  0
    8.6230    2.2479   28.9727 C   0  0  0  0  0  0  0  0  0  0  0  0
    8.2872    2.7212   27.7276 C   0  0  0  0  0  0  0  0  0  0  0  0
    9.2573    3.3515   26.9830 C   0  0  0  0  0  0  0  0  0  0  0  0
    8.9505    3.8457   25.7091 O   0  0  0  0  0  0  0  0  0  0  0  0
   10.5513    3.4955   27.5068 C   0  0  0  0  0  0  0  0  0  0  0  0
   10.8757    3.0156   28.7597 C   0  0  0  0  0  0  0  0  0  0  0  0
   10.6230   -0.2390   32.1058 N   0  0  0  0  0  0  0  0  0  0  0  0
   11.2727    0.3116   33.2252 C   0  0  0  0  0  0  0  0  0  0  0  0
   11.8595    1.4188   33.2535 O   0  0  0  0  0  0  0  0  0  0  0  0
   11.2697   -0.4887   34.4839 C   0  0  2  0  0  0  0  0  0  0  0  0
    9.9105   -0.2996   35.1360 C   0  0  0  0  0  0  0  0  0  0  0  0
    8.7647   -0.7039   34.3328 C   0  0  0  0  0  0  0  0  0  0  0  0
    8.3610   -2.0384   34.3860 C   0  0  0  0  0  0  0  0  0  0  0  0
    7.2365   -2.3858   33.6232 C   0  0  0  0  0  0  0  0  0  0  0  0
    6.5618   -1.4700   32.8618 C   0  0  0  0  0  0  0  0  0  0  0  0
    6.9522   -0.1650   32.8063 C   0  0  0  0  0  0  0  0  0  0  0  0
    8.0527    0.2140   33.5421 C   0  0  0  0  0  0  0  0  0  0  0  0
   12.2481    0.1018   35.4219 N   0  0  0  0  0  0  0  0  0  0  0  0
   13.3099   -0.7403   35.9152 C   0  0  0  0  0  0  0  0  0  0  0  0
   13.3559   -1.9295   35.5245 O   0  0  0  0  0  0  0  0  0  0  0  0
   14.2762   -0.1237   36.8610 C   0  0  2  0  0  0  0  0  0  0  0  0
   15.1969    0.8304   36.1367 C   0  0  0  0  0  0  0  0  0  0  0  0
   16.5711    0.2215   36.2994 C   0  0  0  0  0  0  0  0  0  0  0  0
   16.5111   -0.4871   37.6397 C   0  0  0  0  0  0  0  0  0  0  0  0
   15.1560   -1.0463   37.5168 N   0  0  0  0  0  0  0  0  0  0  0  0
   14.7825   -2.3448   37.9846 C   0  0  0  0  0  0  0  0  0  0  0  0
   13.5526   -2.7018   37.9323 O   0  0  0  0  0  0  0  0  0  0  0  0
   15.7107   -3.3404   38.5417 C   0  0  1  0  0  0  0  0  0  0  0  0
   14.8787   -4.3499   39.2867 N   0  0  0  0  0  0  0  0  0  0  0  0
   15.2716   -4.7109   40.6192 C   0  0  0  0  0  0  0  0  0  0  0  0
   16.2729   -4.2250   41.1877 O   0  0  0  0  0  0  0  0  0  0  0  0
   14.3982   -5.7192   41.2958 C   0  0  2  0  0  0  0  0  0  0  0  0
   12.9965   -5.1635   41.3274 C   0  0  0  0  0  0  0  0  0  0  0  0
   14.9330   -5.9952   42.6031 N   0  0  0  0  0  0  0  0  0  0  0  0
   16.3551   -4.2341   37.4848 C   0  0  0  0  0  0  0  0  0  0  0  0
   17.1474   -3.5378   36.4435 C   0  0  0  0  0  0  0  0  0  0  0  0
   15.4120   -5.2453   36.8992 C   0  0  0  0  0  0  0  0  0  0  0  0
   14.1467   -2.3159   29.8844 C   0  0  0  0  0  0  0  0  0  0  0  0
   13.2673   -2.8278   30.6695 O   0  0  0  0  0  0  0  0  0  0  0  0
   15.0668   -3.0730   29.1486 N   0  0  0  0  0  0  0  0  0  0  0  0
   16.0754   -2.6055   28.1531 C   0  0  0  0  0  0  0  0  0  0  0  0
   17.3418   -3.2886   28.6028 C   0  0  0  0  0  0  0  0  0  0  0  0
   16.8584   -4.3905   29.5653 C   0  0  0  0  0  0  0  0  0  0  0  0
   15.3857   -4.4967   29.1521 C   0  0  1  0  0  0  0  0  0  0  0  0
   14.5825   -5.3991   29.9183 C   0  0  0  0  0  0  0  0  0  0  0  0
   13.4005   -5.2761   30.3147 O   0  0  0  0  0  0  0  0  0  0  0  0
   15.1983   -6.6617   30.3134 N   0  0  0  0  0  0  0  0  0  0  0  0
   14.3554   -7.5708   31.0708 C   0  0  2  0  0  0  0  0  0  0  0  0
   14.8140   -7.4259   32.5158 C   0  0  0  0  0  0  0  0  0  0  0  0
   14.1970   -8.1384   33.3021 O   0  0  0  0  0  0  0  0  0  0  0  0
   14.6521   -8.9865   30.6467 C   0  0  0  0  0  0  0  0  0  0  0  0
   14.4169   -9.1939   29.1796 C   0  0  0  0  0  0  0  0  0  0  0  0
   14.7068  -10.6154   28.8066 C   0  0  0  0  0  0  0  0  0  0  0  0
   15.0321  -11.4567   29.7107 O   0  0  0  0  0  0  0  0  0  0  0  0
   14.6463  -11.0911   27.5200 O   0  0  0  0  0  0  0  0  0  0  0  0
  1  2  1  0
  2  3  1  0
  2  4  1  0
  5  4  1  1
  5  6  1  0
  6  7  1  0
  7  8  2  0
  7  9  1  0
  9 10  1  1
 10 11  1  0
 11 12  2  0
 12 13  1  0
 13 14  2  0
 14 15  1  0
 14 16  1  0
 16 17  2  0
  9 18  1  0
 18 19  1  0
 19 20  2  0
 19 21  1  0
 21 22  1  1
 22 23  1  0
 23 24  2  0
 24 25  1  0
 25 26  2  0
 26 27  1  0
 27 28  2  0
 21 29  1  0
 29 30  1  0
 30 31  2  0
 32 30  1  6
 32 33  1  0
 33 34  1  0
 34 35  1  0
 35 36  1  0
 36 37  1  0
 37 38  2  0
 37 39  1  0
 39 40  1  1
 40 41  1  0
 41 42  2  0
 41 43  1  0
 43 44  1  1
 43 45  1  0
 39 46  1  0
 46 47  1  0
 46 48  1  0
  5 49  1  0
 49 50  2  0
 49 51  1  0
 51 52  1  0
 52 53  1  0
 53 54  1  0
 54 55  1  0
 55 56  1  1
 56 57  2  0
 56 58  1  0
 58 59  1  0
 59 60  1  0
 60 61  2  0
 59 62  1  6
 62 63  1  0
 63 64  1  0
 64 65  2  0
 64 66  1  0
 17 11  1  0
 28 23  1  0
 36 32  1  0
 55 51  1  0
M  CHG  2  45   1  66  -1
M  END
>  <shape_align_shape_tanimoto>  (1) 
0.38972225934702054

>  <shape_align_color_tanimoto>  (1) 
0.00056862367171621334

>  <metric>  (1) 
shape

>  <metric_score>  (1) 
0.390

>  <template_pid>  (1) 
1JD6

>  <template_shape_score>  (1) 
0.390

>  <template_color_score>  (1) 
0.001

>  <template_combo_score>  (1) 
0.195

$$$$
1JD6_color_pose
     RDKit          3D

 66 69  0  0  0  0  0  0  0  0999 V2000
    6.2437   -1.6207   32.7998 C   0  0  0  0  0  0  0  0  0  0  0  0
    7.5032   -2.4063   33.0064 C   0  0  0  0  0  0  0  0  0  0  0  0
    7.6440   -2.9539   34.4325 C   0  0  0  0  0  0  0  0  0  0  0  0
    8.7325   -1.9442   32.4001 C   0  0  0  0  0  0  0  0  0  0  0  0
    9.4386   -0.6880   32.6290 C   0  0  2  0  0  0  0  0  0  0  0  0
   10.6149   -0.7116   31.6807 N   0  0  0  0  0  0  0  0  0  0  0  0
   10.9663    0.4581   30.9855 C   0  0  0  0  0  0  0  0  0  0  0  0
   10.2457    1.4815   31.2646 O   0  0  0  0  0  0  0  0  0  0  0  0
   12.0116    0.6550   30.0101 C   0  0  2  0  0  0  0  0  0  0  0  0
   11.2726    0.8891   28.6394 C   0  0  0  0  0  0  0  0  0  0  0  0
   10.3973    2.0523   28.6806 C   0  0  0  0  0  0  0  0  0  0  0  0
    9.0507    2.0491   28.9413 C   0  0  0  0  0  0  0  0  0  0  0  0
    8.2946    3.2261   28.9715 C   0  0  0  0  0  0  0  0  0  0  0  0
    8.9018    4.4375   28.7345 C   0  0  0  0  0  0  0  0  0  0  0  0
    8.1711    5.6191   28.7599 O   0  0  0  0  0  0  0  0  0  0  0  0
   10.2606    4.4723   28.4678 C   0  0  0  0  0  0  0  0  0  0  0  0
   10.9785    3.2994   28.4446 C   0  0  0  0  0  0  0  0  0  0  0  0
   12.7767   -0.5594   29.6921 N   0  0  0  0  0  0  0  0  0  0  0  0
   13.9482   -0.3223   28.9462 C   0  0  0  0  0  0  0  0  0  0  0  0
   14.1492    0.9469   28.6958 O   0  0  0  0  0  0  0  0  0  0  0  0
   14.9512   -1.2065   28.4012 C   0  0  2  0  0  0  0  0  0  0  0  0
   14.8615   -1.0941   26.8457 C   0  0  0  0  0  0  0  0  0  0  0  0
   15.7937   -1.9001   26.0965 C   0  0  0  0  0  0  0  0  0  0  0  0
   17.0763   -1.4821   25.7325 C   0  0  0  0  0  0  0  0  0  0  0  0
   17.9220   -2.2600   24.9791 C   0  0  0  0  0  0  0  0  0  0  0  0
   17.5054   -3.5018   24.5586 C   0  0  0  0  0  0  0  0  0  0  0  0
   16.2427   -3.9605   24.8946 C   0  0  0  0  0  0  0  0  0  0  0  0
   15.4260   -3.1489   25.6517 C   0  0  0  0  0  0  0  0  0  0  0  0
   14.9792   -2.5889   28.6827 N   0  0  0  0  0  0  0  0  0  0  0  0
   16.2595   -3.2050   28.8982 C   0  0  0  0  0  0  0  0  0  0  0  0
   17.2427   -2.3651   28.7979 O   0  0  0  0  0  0  0  0  0  0  0  0
   16.5909   -4.5638   29.1886 C   0  0  2  0  0  0  0  0  0  0  0  0
   16.5359   -5.4291   27.9159 C   0  0  0  0  0  0  0  0  0  0  0  0
   16.6502   -6.8188   28.4641 C   0  0  0  0  0  0  0  0  0  0  0  0
   16.6007   -6.7263   29.9452 C   0  0  0  0  0  0  0  0  0  0  0  0
   15.9372   -5.3688   30.1308 N   0  0  0  0  0  0  0  0  0  0  0  0
   14.9460   -5.3005   31.1008 C   0  0  0  0  0  0  0  0  0  0  0  0
   14.6693   -6.4699   31.6413 O   0  0  0  0  0  0  0  0  0  0  0  0
   14.1507   -4.2131   31.6450 C   0  0  1  0  0  0  0  0  0  0  0  0
   13.0262   -4.8534   32.4473 N   0  0  0  0  0  0  0  0  0  0  0  0
   11.7059   -4.8131   31.9363 C   0  0  0  0  0  0  0  0  0  0  0  0
   11.4167   -4.2539   30.8241 O   0  0  0  0  0  0  0  0  0  0  0  0
   10.6449   -5.4561   32.7456 C   0  0  2  0  0  0  0  0  0  0  0  0
   10.9761   -6.8599   33.1574 C   0  0  0  0  0  0  0  0  0  0  0  0
    9.3981   -5.4954   31.9931 N   0  0  0  0  0  0  0  0  0  0  0  0
   14.8796   -3.4185   32.6979 C   0  0  0  0  0  0  0  0  0  0  0  0
   16.1323   -2.7990   32.2100 C   0  0  0  0  0  0  0  0  0  0  0  0
   13.9505   -2.2637   33.0679 C   0  0  0  0  0  0  0  0  0  0  0  0
   10.0818   -0.4201   33.9155 C   0  0  0  0  0  0  0  0  0  0  0  0
   11.3579   -0.6317   33.9228 O   0  0  0  0  0  0  0  0  0  0  0  0
    9.5463    0.0310   35.1272 N   0  0  0  0  0  0  0  0  0  0  0  0
    8.0968    0.3495   35.3594 C   0  0  0  0  0  0  0  0  0  0  0  0
    7.8548   -0.2749   36.7368 C   0  0  0  0  0  0  0  0  0  0  0  0
    9.2442   -0.6758   37.2555 C   0  0  0  0  0  0  0  0  0  0  0  0
   10.0812    0.3029   36.4204 C   0  0  1  0  0  0  0  0  0  0  0  0
   11.4480    0.3067   36.7941 C   0  0  0  0  0  0  0  0  0  0  0  0
   11.7581   -0.2403   37.9346 O   0  0  0  0  0  0  0  0  0  0  0  0
   12.5710    0.8343   36.1064 N   0  0  0  0  0  0  0  0  0  0  0  0
   13.9056    0.7008   36.7359 C   0  0  2  0  0  0  0  0  0  0  0  0
   14.3089    2.1245   36.9413 C   0  0  0  0  0  0  0  0  0  0  0  0
   13.4919    2.9581   36.5066 O   0  0  0  0  0  0  0  0  0  0  0  0
   14.8649    0.0358   35.8378 C   0  0  0  0  0  0  0  0  0  0  0  0
   16.2088   -0.1747   36.4442 C   0  0  0  0  0  0  0  0  0  0  0  0
   16.9764    0.9660   36.8945 C   0  0  0  0  0  0  0  0  0  0  0  0
   17.2505    1.1114   38.1416 O   0  0  0  0  0  0  0  0  0  0  0  0
   17.4396    1.9384   35.9887 O   0  0  0  0  0  0  0  0  0  0  0  0
  1  2  1  0
  2  3  1  0
  2  4  1  0
  5  4  1  1
  5  6  1  0
  6  7  1  0
  7  8  2  0
  7  9  1  0
  9 10  1  6
 10 11  1  0
 11 12  2  0
 12 13  1  0
 13 14  2  0
 14 15  1  0
 14 16  1  0
 16 17  2  0
  9 18  1  0
 18 19  1  0
 19 20  2  0
 19 21  1  0
 21 22  1  6
 22 23  1  0
 23 24  2  0
 24 25  1  0
 25 26  2  0
 26 27  1  0
 27 28  2  0
 21 29  1  0
 29 30  1  0
 30 31  2  0
 32 30  1  6
 32 33  1  0
 33 34  1  0
 34 35  1  0
 35 36  1  0
 36 37  1  0
 37 38  2  0
 37 39  1  0
 39 40  1  1
 40 41  1  0
 41 42  2  0
 41 43  1  0
 43 44  1  6
 43 45  1  0
 39 46  1  0
 46 47  1  0
 46 48  1  0
  5 49  1  0
 49 50  2  0
 49 51  1  0
 51 52  1  0
 52 53  1  0
 53 54  1  0
 54 55  1  0
 55 56  1  6
 56 57  2  0
 56 58  1  0
 58 59  1  0
 59 60  1  0
 60 61  2  0
 59 62  1  6
 62 63  1  0
 63 64  1  0
 64 65  2  0
 64 66  1  0
 17 11  1  0
 28 23  1  0
 36 32  1  0
 55 51  1  0
M  CHG  2  45   1  66  -1
M  END
>  <shape_align_shape_tanimoto>  (2) 
0.34030842623921104

>  <shape_align_color_tanimoto>  (2) 
0.070820569186505936

>  <metric>  (2) 
color

>  <metric_score>  (2) 
0.071

>  <template_pid>  (2) 
1JD6

>  <template_shape_score>  (2) 
0.340

>  <template_color_score>  (2) 
0.071

>  <template_combo_score>  (2) 
0.206

$$$$
1JD6_combo_pose
     RDKit          3D

 66 69  0  0  0  0  0  0  0  0999 V2000
    8.1160   -3.7600   32.6257 C   0  0  0  0  0  0  0  0  0  0  0  0
    8.7097   -2.3805   32.2525 C   0  0  0  0  0  0  0  0  0  0  0  0
    9.7021   -2.7354   31.1358 C   0  0  0  0  0  0  0  0  0  0  0  0
    9.3586   -1.8853   33.4827 C   0  0  0  0  0  0  0  0  0  0  0  0
   10.0348   -0.5295   33.4186 C   0  0  2  0  0  0  0  0  0  0  0  0
   11.0908   -0.5845   32.4042 N   0  0  0  0  0  0  0  0  0  0  0  0
   11.1110    0.4292   31.3641 C   0  0  0  0  0  0  0  0  0  0  0  0
   10.2085    1.2977   31.4716 O   0  0  0  0  0  0  0  0  0  0  0  0
   12.0516    0.4817   30.2777 C   0  0  2  0  0  0  0  0  0  0  0  0
   11.3280    0.5285   28.8991 C   0  0  0  0  0  0  0  0  0  0  0  0
   10.4536    1.7258   28.8045 C   0  0  0  0  0  0  0  0  0  0  0  0
   11.0583    2.9316   28.4211 C   0  0  0  0  0  0  0  0  0  0  0  0
   10.3363    4.0961   28.2870 C   0  0  0  0  0  0  0  0  0  0  0  0
    8.9861    4.0843   28.5341 C   0  0  0  0  0  0  0  0  0  0  0  0
    8.2177    5.2410   28.4124 O   0  0  0  0  0  0  0  0  0  0  0  0
    8.3726    2.9093   28.9113 C   0  0  0  0  0  0  0  0  0  0  0  0
    9.1039    1.7271   29.0473 C   0  0  0  0  0  0  0  0  0  0  0  0
   13.0802   -0.5280   30.2341 N   0  0  0  0  0  0  0  0  0  0  0  0
   13.3388   -1.4059   29.1658 C   0  0  0  0  0  0  0  0  0  0  0  0
   12.6636   -1.4528   28.0901 O   0  0  0  0  0  0  0  0  0  0  0  0
   14.4764   -2.3992   29.2069 C   0  0  2  0  0  0  0  0  0  0  0  0
   13.8836   -3.7730   29.4926 C   0  0  0  0  0  0  0  0  0  0  0  0
   14.9130   -4.8351   29.5573 C   0  0  0  0  0  0  0  0  0  0  0  0
   15.4979   -5.0558   30.8102 C   0  0  0  0  0  0  0  0  0  0  0  0
   16.4592   -6.0340   30.9499 C   0  0  0  0  0  0  0  0  0  0  0  0
   16.8079   -6.7625   29.8349 C   0  0  0  0  0  0  0  0  0  0  0  0
   16.2377   -6.5481   28.6106 C   0  0  0  0  0  0  0  0  0  0  0  0
   15.2776   -5.5767   28.4531 C   0  0  0  0  0  0  0  0  0  0  0  0
   15.4528   -2.0500   30.2315 N   0  0  0  0  0  0  0  0  0  0  0  0
   16.7084   -1.5783   29.6909 C   0  0  0  0  0  0  0  0  0  0  0  0
   16.8577   -1.5011   28.4372 O   0  0  0  0  0  0  0  0  0  0  0  0
   17.8438   -1.1741   30.5889 C   0  0  2  0  0  0  0  0  0  0  0  0
   17.2918   -0.0141   31.4057 C   0  0  0  0  0  0  0  0  0  0  0  0
   18.5132    0.8905   31.4938 C   0  0  0  0  0  0  0  0  0  0  0  0
   19.0844    0.7940   30.0893 C   0  0  0  0  0  0  0  0  0  0  0  0
   18.9188   -0.6635   29.7838 N   0  0  0  0  0  0  0  0  0  0  0  0
   19.7486   -1.2372   28.8001 C   0  0  0  0  0  0  0  0  0  0  0  0
   20.5293   -0.3711   28.2172 O   0  0  0  0  0  0  0  0  0  0  0  0
   19.8793   -2.5974   28.3330 C   0  0  1  0  0  0  0  0  0  0  0  0
   20.6534   -2.6434   27.0600 N   0  0  0  0  0  0  0  0  0  0  0  0
   20.1673   -3.3864   25.9592 C   0  0  0  0  0  0  0  0  0  0  0  0
   19.0636   -4.0157   26.0542 O   0  0  0  0  0  0  0  0  0  0  0  0
   20.8760   -3.4877   24.6568 C   0  0  2  0  0  0  0  0  0  0  0  0
   21.0956   -2.1642   23.9989 C   0  0  0  0  0  0  0  0  0  0  0  0
   20.0587   -4.3404   23.7867 N   0  0  0  0  0  0  0  0  0  0  0  0
   20.8130   -3.3966   29.2690 C   0  0  0  0  0  0  0  0  0  0  0  0
   22.1786   -2.7918   29.3482 C   0  0  0  0  0  0  0  0  0  0  0  0
   20.1931   -3.7806   30.5569 C   0  0  0  0  0  0  0  0  0  0  0  0
   10.5676   -0.2853   34.7547 C   0  0  0  0  0  0  0  0  0  0  0  0
   11.8784   -0.3366   34.8099 O   0  0  0  0  0  0  0  0  0  0  0  0
    9.9706   -0.0101   35.9821 N   0  0  0  0  0  0  0  0  0  0  0  0
   10.9651    0.0996   37.1560 C   0  0  0  0  0  0  0  0  0  0  0  0
   10.4166    1.3019   37.8608 C   0  0  0  0  0  0  0  0  0  0  0  0
    9.1221    1.6719   37.1932 C   0  0  0  0  0  0  0  0  0  0  0  0
    8.7583    0.2322   36.6299 C   0  0  1  0  0  0  0  0  0  0  0  0
    7.4192    0.2644   36.1649 C   0  0  0  0  0  0  0  0  0  0  0  0
    6.5236    0.4660   37.1377 O   0  0  0  0  0  0  0  0  0  0  0  0
    6.7932    0.1392   34.9315 N   0  0  0  0  0  0  0  0  0  0  0  0
    5.3471    0.2327   34.7761 C   0  0  2  0  0  0  0  0  0  0  0  0
    4.8088   -1.1650   34.5879 C   0  0  0  0  0  0  0  0  0  0  0  0
    5.6300   -2.0601   34.6304 O   0  0  0  0  0  0  0  0  0  0  0  0
    4.9123    1.0999   33.6516 C   0  0  0  0  0  0  0  0  0  0  0  0
    5.4253    0.6313   32.3096 C   0  0  0  0  0  0  0  0  0  0  0  0
    4.9135    1.5751   31.2849 C   0  0  0  0  0  0  0  0  0  0  0  0
    4.2037    2.5516   31.6390 O   0  0  0  0  0  0  0  0  0  0  0  0
    5.2344    1.3541   29.9594 O   0  0  0  0  0  0  0  0  0  0  0  0
  1  2  1  0
  2  3  1  0
  2  4  1  0
  5  4  1  1
  5  6  1  0
  6  7  1  0
  7  8  2  0
  7  9  1  0
  9 10  1  6
 10 11  1  0
 11 12  2  0
 12 13  1  0
 13 14  2  0
 14 15  1  0
 14 16  1  0
 16 17  2  0
  9 18  1  0
 18 19  1  0
 19 20  2  0
 19 21  1  0
 21 22  1  1
 22 23  1  0
 23 24  2  0
 24 25  1  0
 25 26  2  0
 26 27  1  0
 27 28  2  0
 21 29  1  0
 29 30  1  0
 30 31  2  0
 32 30  1  6
 32 33  1  0
 33 34  1  0
 34 35  1  0
 35 36  1  0
 36 37  1  0
 37 38  2  0
 37 39  1  0
 39 40  1  6
 40 41  1  0
 41 42  2  0
 41 43  1  0
 43 44  1  6
 43 45  1  0
 39 46  1  0
 46 47  1  0
 46 48  1  0
  5 49  1  0
 49 50  2  0
 49 51  1  0
 51 52  1  0
 52 53  1  0
 53 54  1  0
 54 55  1  0
 55 56  1  6
 56 57  2  0
 56 58  1  0
 58 59  1  0
 59 60  1  0
 60 61  2  0
 59 62  1  6
 62 63  1  0
 63 64  1  0
 64 65  2  0
 64 66  1  0
 17 11  1  0
 28 23  1  0
 36 32  1  0
 55 51  1  0
M  CHG  2  45   1  66  -1
M  END
>  <shape_align_shape_tanimoto>  (3) 
0.35180907597894762

>  <shape_align_color_tanimoto>  (3) 
0.068936598735533858

>  <metric>  (3) 
combo

>  <metric_score>  (3) 
0.210

>  <template_pid>  (3) 
1JD6

>  <template_shape_score>  (3) 
0.352

>  <template_color_score>  (3) 
0.069

>  <template_combo_score>  (3) 
0.210

$$$$
