4PL5_shape_pose
     RDKit          3D

 22 24  0  0  0  0  0  0  0  0999 V2000
   67.2538   66.2507   52.1528 C   0  0  0  0  0  0  0  0  0  0  0  0
   66.4638   65.6566   51.1475 O   0  0  0  0  0  0  0  0  0  0  0  0
   65.2490   65.1064   51.5188 C   0  0  0  0  0  0  0  0  0  0  0  0
   64.8509   65.1549   52.8486 C   0  0  0  0  0  0  0  0  0  0  0  0
   63.6453   64.6023   53.1822 C   0  0  0  0  0  0  0  0  0  0  0  0
   63.1570   64.6118   54.5546 C   0  0  0  0  0  0  0  0  0  0  0  0
   61.8165   64.6690   54.8623 C   0  0  0  0  0  0  0  0  0  0  0  0
   61.4176   64.6737   56.1802 C   0  0  0  0  0  0  0  0  0  0  0  0
   62.3135   64.6228   57.2312 C   0  0  0  0  0  0  0  0  0  0  0  0
   61.8796   64.6300   58.5953 N   0  0  0  0  0  0  0  0  0  0  0  0
   62.8841   64.5124   59.6156 C   0  0  0  0  0  0  0  0  0  0  0  0
   62.3457   64.2530   60.9694 C   0  0  0  0  0  0  0  0  0  0  0  0
   61.1540   64.9547   61.1121 O   0  0  0  0  0  0  0  0  0  0  0  0
   60.1764   64.4636   60.2539 C   0  0  0  0  0  0  0  0  0  0  0  0
   60.4668   64.7584   58.8238 C   0  0  0  0  0  0  0  0  0  0  0  0
   63.6457   64.5665   56.8870 C   0  0  0  0  0  0  0  0  0  0  0  0
   64.0789   64.5601   55.5765 C   0  0  0  0  0  0  0  0  0  0  0  0
   62.8230   64.0031   52.2370 C   0  0  0  0  0  0  0  0  0  0  0  0
   63.2228   63.9543   50.9017 C   0  0  0  0  0  0  0  0  0  0  0  0
   62.3547   63.3156   49.8719 C   0  0  0  0  0  0  0  0  0  0  0  0
   64.4410   64.5115   50.5577 C   0  0  0  0  0  0  0  0  0  0  0  0
   64.8953   64.4993   49.2689 O   0  0  0  0  0  0  0  0  0  0  0  0
  1  2  1  0
  2  3  1  0
  3  4  2  0
  4  5  1  0
  5  6  1  0
  6  7  2  0
  7  8  1  0
  8  9  2  0
  9 10  1  0
 10 11  1  0
 11 12  1  0
 12 13  1  0
 13 14  1  0
 14 15  1  0
  9 16  1  0
 16 17  2  0
  5 18  2  0
 18 19  1  0
 19 20  1  0
 19 21  2  0
 21 22  1  0
 21  3  1  0
 17  6  1  0
 15 10  1  0
M  END
>  <shape_align_shape_tanimoto>  (1) 
0.84068849573161053

>  <shape_align_color_tanimoto>  (1) 
0.057173965646603528

>  <metric>  (1) 
shape

>  <metric_score>  (1) 
0.841

>  <template_pid>  (1) 
4PL5

>  <template_shape_score>  (1) 
0.841

>  <template_color_score>  (1) 
0.057

>  <template_combo_score>  (1) 
0.449

$$$$
4PL5_color_pose
     RDKit          3D

 22 24  0  0  0  0  0  0  0  0999 V2000
   58.2896   63.3509   58.1069 C   0  0  0  0  0  0  0  0  0  0  0  0
   59.1417   63.6709   59.1795 O   0  0  0  0  0  0  0  0  0  0  0  0
   60.4704   64.0322   58.9706 C   0  0  0  0  0  0  0  0  0  0  0  0
   60.9910   64.0858   57.6850 C   0  0  0  0  0  0  0  0  0  0  0  0
   62.3084   64.4456   57.5028 C   0  0  0  0  0  0  0  0  0  0  0  0
   62.8127   64.4910   56.1477 C   0  0  0  0  0  0  0  0  0  0  0  0
   61.9368   64.8414   55.1423 C   0  0  0  0  0  0  0  0  0  0  0  0
   62.3392   64.9071   53.8260 C   0  0  0  0  0  0  0  0  0  0  0  0
   63.6564   64.6221   53.4412 C   0  0  0  0  0  0  0  0  0  0  0  0
   64.0422   64.6976   52.0845 N   0  0  0  0  0  0  0  0  0  0  0  0
   65.3691   64.4089   51.5877 C   0  0  0  0  0  0  0  0  0  0  0  0
   65.7906   65.6224   50.7471 C   0  0  0  0  0  0  0  0  0  0  0  0
   64.8706   65.9233   49.7706 O   0  0  0  0  0  0  0  0  0  0  0  0
   63.7582   65.0961   49.7493 C   0  0  0  0  0  0  0  0  0  0  0  0
   63.0465   65.0931   51.1003 C   0  0  0  0  0  0  0  0  0  0  0  0
   64.5058   64.2754   54.4699 C   0  0  0  0  0  0  0  0  0  0  0  0
   64.1104   64.2074   55.7904 C   0  0  0  0  0  0  0  0  0  0  0  0
   63.0778   64.7448   58.6162 C   0  0  0  0  0  0  0  0  0  0  0  0
   62.5812   64.6980   59.9026 C   0  0  0  0  0  0  0  0  0  0  0  0
   63.4500   65.0304   61.0881 C   0  0  0  0  0  0  0  0  0  0  0  0
   61.2426   64.3325   60.0875 C   0  0  0  0  0  0  0  0  0  0  0  0
   60.7289   64.2813   61.3772 O   0  0  0  0  0  0  0  0  0  0  0  0
  1  2  1  0
  2  3  1  0
  3  4  2  0
  4  5  1  0
  5  6  1  0
  6  7  2  0
  7  8  1  0
  8  9  2  0
  9 10  1  0
 10 11  1  0
 11 12  1  0
 12 13  1  0
 13 14  1  0
 14 15  1  0
  9 16  1  0
 16 17  2  0
  5 18  2  0
 18 19  1  0
 19 20  1  0
 19 21  2  0
 21 22  1  0
 21  3  1  0
 17  6  1  0
 15 10  1  0
M  END
>  <shape_align_shape_tanimoto>  (2) 
0.74644065015591554

>  <shape_align_color_tanimoto>  (2) 
0.12585395607312005

>  <metric>  (2) 
color

>  <metric_score>  (2) 
0.126

>  <template_pid>  (2) 
4PL5

>  <template_shape_score>  (2) 
0.746

>  <template_color_score>  (2) 
0.126

>  <template_combo_score>  (2) 
0.436

$$$$
4PL5_combo_pose
     RDKit          3D

 22 24  0  0  0  0  0  0  0  0999 V2000
   58.1442   64.6554   58.2516 C   0  0  0  0  0  0  0  0  0  0  0  0
   59.0553   64.4992   59.3266 O   0  0  0  0  0  0  0  0  0  0  0  0
   60.4082   64.4203   59.0241 C   0  0  0  0  0  0  0  0  0  0  0  0
   60.8726   64.4905   57.7161 C   0  0  0  0  0  0  0  0  0  0  0  0
   62.2455   64.4048   57.4782 C   0  0  0  0  0  0  0  0  0  0  0  0
   62.7379   64.4783   56.1075 C   0  0  0  0  0  0  0  0  0  0  0  0
   61.9930   63.9951   55.0543 C   0  0  0  0  0  0  0  0  0  0  0  0
   62.4627   64.0651   53.7365 C   0  0  0  0  0  0  0  0  0  0  0  0
   63.7027   64.6280   53.4486 C   0  0  0  0  0  0  0  0  0  0  0  0
   64.1146   64.6705   52.1143 N   0  0  0  0  0  0  0  0  0  0  0  0
   63.1903   64.1185   51.1104 C   0  0  0  0  0  0  0  0  0  0  0  0
   63.7869   64.5142   49.7633 C   0  0  0  0  0  0  0  0  0  0  0  0
   64.0286   65.8841   49.7195 O   0  0  0  0  0  0  0  0  0  0  0  0
   65.0539   66.2639   50.5779 C   0  0  0  0  0  0  0  0  0  0  0  0
   65.3527   65.1991   51.6122 C   0  0  0  0  0  0  0  0  0  0  0  0
   64.4166   65.0991   54.5259 C   0  0  0  0  0  0  0  0  0  0  0  0
   63.9672   65.0371   55.8288 C   0  0  0  0  0  0  0  0  0  0  0  0
   63.1548   64.2523   58.5047 C   0  0  0  0  0  0  0  0  0  0  0  0
   62.6922   64.1827   59.8036 C   0  0  0  0  0  0  0  0  0  0  0  0
   63.6480   64.0184   60.9331 C   0  0  0  0  0  0  0  0  0  0  0  0
   61.3242   64.2659   60.0692 C   0  0  0  0  0  0  0  0  0  0  0  0
   60.8210   64.2002   61.3587 O   0  0  0  0  0  0  0  0  0  0  0  0
  1  2  1  0
  2  3  1  0
  3  4  2  0
  4  5  1  0
  5  6  1  0
  6  7  2  0
  7  8  1  0
  8  9  2  0
  9 10  1  0
 10 11  1  0
 11 12  1  0
 12 13  1  0
 13 14  1  0
 14 15  1  0
  9 16  1  0
 16 17  2  0
  5 18  2  0
 18 19  1  0
 19 20  1  0
 19 21  2  0
 21 22  1  0
 21  3  1  0
 17  6  1  0
 15 10  1  0
M  END
>  <shape_align_shape_tanimoto>  (3) 
0.78832174859320325

>  <shape_align_color_tanimoto>  (3) 
0.12376285258117702

>  <metric>  (3) 
combo

>  <metric_score>  (3) 
0.456

>  <template_pid>  (3) 
4PL5

>  <template_shape_score>  (3) 
0.788

>  <template_color_score>  (3) 
0.124

>  <template_combo_score>  (3) 
0.456

$$$$
