6UFN_shape_pose
     RDKit          3D

 14 13  0  0  0  0  0  0  0  0999 V2000
    4.0016   79.1764   80.6555 C   0  0  0  0  0  0  0  0  0  0  0  0
    2.6568   79.7676   80.3311 C   0  0  0  0  0  0  0  0  0  0  0  0
    2.3641   80.7411   81.2835 O   0  0  0  0  0  0  0  0  0  0  0  0
    2.7677   80.4236   79.1064 O   0  0  0  0  0  0  0  0  0  0  0  0
    1.5401   78.7632   80.3265 C   0  0  0  0  0  0  0  0  0  0  0  0
    1.7355   77.6604   79.3242 C   0  0  0  0  0  0  0  0  0  0  0  0
    0.5573   76.6834   79.3848 C   0  0  0  0  0  0  0  0  0  0  0  0
    0.7571   75.5676   78.3701 C   0  0  0  0  0  0  0  0  0  0  0  0
   -0.3640   74.5825   78.3853 C   0  0  0  0  0  0  0  0  0  0  0  0
   -0.5483   73.9282   79.6447 N   0  0  0  0  0  0  0  0  0  0  0  0
    0.6746   73.3673   80.1793 C   0  0  0  0  0  0  0  0  0  0  0  0
    0.4443   72.5483   81.4103 C   0  0  0  0  0  0  0  0  0  0  0  0
    1.7398   71.9677   81.9575 C   0  0  0  0  0  0  0  0  0  0  0  0
    2.3955   71.1051   80.9941 N   0  0  0  0  0  0  0  0  0  0  0  0
  1  2  1  0
  2  3  1  0
  2  4  1  0
  2  5  1  0
  5  6  1  0
  6  7  1  0
  7  8  1  0
  8  9  1  0
  9 10  1  0
 10 11  1  0
 11 12  1  0
 12 13  1  0
 13 14  1  0
M  CHG  2  10   1  14   1
M  END
>  <shape_align_shape_tanimoto>  (1) 
0.59559407312703794

>  <shape_align_color_tanimoto>  (1) 
0.01288495181376105

>  <metric>  (1) 
shape

>  <metric_score>  (1) 
0.596

>  <template_pid>  (1) 
6UFN

>  <template_shape_score>  (1) 
0.596

>  <template_color_score>  (1) 
0.013

>  <template_combo_score>  (1) 
0.304

$$$$
6UFN_color_pose
     RDKit          3D

 14 13  0  0  0  0  0  0  0  0999 V2000
    3.1513   77.5989   81.1719 C   0  0  0  0  0  0  0  0  0  0  0  0
    2.8310   78.6879   80.1846 C   0  0  0  0  0  0  0  0  0  0  0  0
    3.4383   78.5694   78.9652 O   0  0  0  0  0  0  0  0  0  0  0  0
    3.4827   79.8486   80.7636 O   0  0  0  0  0  0  0  0  0  0  0  0
    1.4211   79.0665   80.0920 C   0  0  0  0  0  0  0  0  0  0  0  0
    0.3568   78.1290   79.7277 C   0  0  0  0  0  0  0  0  0  0  0  0
    0.2837   77.4431   78.4509 C   0  0  0  0  0  0  0  0  0  0  0  0
    1.2374   76.4826   77.9350 C   0  0  0  0  0  0  0  0  0  0  0  0
    1.4503   75.2088   78.7680 C   0  0  0  0  0  0  0  0  0  0  0  0
    0.2817   74.4406   78.9442 N   0  0  0  0  0  0  0  0  0  0  0  0
   -0.1886   74.1380   80.2153 C   0  0  0  0  0  0  0  0  0  0  0  0
    0.6530   73.8351   81.3620 C   0  0  0  0  0  0  0  0  0  0  0  0
    1.5665   72.6490   81.2854 C   0  0  0  0  0  0  0  0  0  0  0  0
    2.5532   72.6754   80.2572 N   0  0  0  0  0  0  0  0  0  0  0  0
  1  2  1  0
  2  3  1  0
  2  4  1  0
  2  5  1  0
  5  6  1  0
  6  7  1  0
  7  8  1  0
  8  9  1  0
  9 10  1  0
 10 11  1  0
 11 12  1  0
 12 13  1  0
 13 14  1  0
M  CHG  2  10   1  14   1
M  END
>  <shape_align_shape_tanimoto>  (2) 
0.4829264229994053

>  <shape_align_color_tanimoto>  (2) 
0.069248668937145069

>  <metric>  (2) 
color

>  <metric_score>  (2) 
0.069

>  <template_pid>  (2) 
6UFN

>  <template_shape_score>  (2) 
0.483

>  <template_color_score>  (2) 
0.069

>  <template_combo_score>  (2) 
0.276

$$$$
6UFN_combo_pose
     RDKit          3D

 14 13  0  0  0  0  0  0  0  0999 V2000
    1.9790   80.9499   81.8726 C   0  0  0  0  0  0  0  0  0  0  0  0
    2.6450   80.1435   80.7577 C   0  0  0  0  0  0  0  0  0  0  0  0
    2.6871   80.9190   79.6048 O   0  0  0  0  0  0  0  0  0  0  0  0
    3.9449   79.8915   81.1509 O   0  0  0  0  0  0  0  0  0  0  0  0
    1.8674   78.8474   80.5124 C   0  0  0  0  0  0  0  0  0  0  0  0
    2.5290   78.0549   79.4108 C   0  0  0  0  0  0  0  0  0  0  0  0
    1.8147   76.7565   79.1107 C   0  0  0  0  0  0  0  0  0  0  0  0
    0.3936   76.9715   78.6738 C   0  0  0  0  0  0  0  0  0  0  0  0
   -0.3583   75.7182   78.3643 C   0  0  0  0  0  0  0  0  0  0  0  0
   -0.4676   74.7979   79.4822 N   0  0  0  0  0  0  0  0  0  0  0  0
   -0.0490   73.4654   79.1226 C   0  0  0  0  0  0  0  0  0  0  0  0
    0.4283   72.6254   80.2726 C   0  0  0  0  0  0  0  0  0  0  0  0
    1.6088   73.1953   80.9743 C   0  0  0  0  0  0  0  0  0  0  0  0
    2.0676   72.3735   82.0790 N   0  0  0  0  0  0  0  0  0  0  0  0
  1  2  1  0
  2  3  1  0
  2  4  1  0
  2  5  1  0
  5  6  1  0
  6  7  1  0
  7  8  1  0
  8  9  1  0
  9 10  1  0
 10 11  1  0
 11 12  1  0
 12 13  1  0
 13 14  1  0
M  CHG  2  10   1  14   1
M  END
>  <shape_align_shape_tanimoto>  (3) 
0.57267581087536168

>  <shape_align_color_tanimoto>  (3) 
0.055237877538057679

>  <metric>  (3) 
combo

>  <metric_score>  (3) 
0.314

>  <template_pid>  (3) 
6UFN

>  <template_shape_score>  (3) 
0.573

>  <template_color_score>  (3) 
0.055

>  <template_combo_score>  (3) 
0.314

$$$$
