1HBJ_shape_pose
     RDKit          3D

 28 30  0  0  0  0  0  0  0  0999 V2000
  -38.5581  156.2839   78.2125 C   0  0  0  0  0  0  0  0  0  0  0  0
  -38.6989  157.2717   79.2782 C   0  0  0  0  0  0  0  0  0  0  0  0
  -39.8832  157.9366   79.3496 N   0  0  0  0  0  0  0  0  0  0  0  0
  -40.0618  158.8875   80.2772 C   0  0  0  0  0  0  0  0  0  0  0  0
  -41.2857  159.5447   80.3182 C   0  0  0  0  0  0  0  0  0  0  0  0
  -41.5060  160.5297   81.2592 C   0  0  0  0  0  0  0  0  0  0  0  0
  -40.4901  160.8519   82.1598 C   0  0  0  0  0  0  0  0  0  0  0  0
  -39.2718  160.1947   82.1157 C   0  0  0  0  0  0  0  0  0  0  0  0
  -38.2773  160.4985   82.9848 F   0  0  0  0  0  0  0  0  0  0  0  0
  -39.0621  159.2091   81.1682 C   0  0  0  0  0  0  0  0  0  0  0  0
  -37.8750  158.5229   81.0766 C   0  0  0  0  0  0  0  0  0  0  0  0
  -36.8527  158.8700   82.0072 N   0  0  0  0  0  0  0  0  0  0  0  0
  -37.6657  157.5193   80.1103 C   0  0  0  0  0  0  0  0  0  0  0  0
  -36.3617  156.8484   80.1770 C   0  0  0  0  0  0  0  0  0  0  0  0
  -36.3845  155.3645   81.1392 S   0  0  0  0  0  0  0  0  0  0  0  0
  -37.1269  153.8959   80.5536 C   0  0  0  0  0  0  0  0  0  0  0  0
  -36.4289  153.1517   79.4906 C   0  0  0  0  0  0  0  0  0  0  0  0
  -36.6843  153.1874   78.1541 C   0  0  0  0  0  0  0  0  0  0  0  0
  -35.9367  152.4526   77.2345 C   0  0  0  0  0  0  0  0  0  0  0  0
  -34.9020  151.6575   77.6713 C   0  0  0  0  0  0  0  0  0  0  0  0
  -34.6160  151.5968   79.0180 C   0  0  0  0  0  0  0  0  0  0  0  0
  -33.5329  150.7728   79.5621 C   0  0  2  0  0  0  0  0  0  0  0  0
  -32.7975  151.5455   80.4858 O   0  0  0  0  0  0  0  0  0  0  0  0
  -32.5738  150.2060   78.5786 C   0  0  0  0  0  0  0  0  0  0  0  0
  -33.0893  149.3790   77.6345 F   0  0  0  0  0  0  0  0  0  0  0  0
  -31.6161  149.4935   79.3162 F   0  0  0  0  0  0  0  0  0  0  0  0
  -31.8404  151.1852   77.9208 F   0  0  0  0  0  0  0  0  0  0  0  0
  -35.3743  152.3364   79.9028 C   0  0  0  0  0  0  0  0  0  0  0  0
  1  2  1  0
  2  3  2  0
  3  4  1  0
  4  5  2  0
  5  6  1  0
  6  7  2  0
  7  8  1  0
  8  9  1  0
  8 10  2  0
 10 11  1  0
 11 12  1  0
 11 13  2  0
 13 14  1  0
 14 15  1  0
 15 16  1  0
 16 17  1  0
 17 18  2  0
 18 19  1  0
 19 20  2  0
 20 21  1  0
 21 22  1  0
 22 23  1  1
 22 24  1  0
 24 25  1  0
 24 26  1  0
 24 27  1  0
 21 28  2  0
 13  2  1  0
 28 17  1  0
 10  4  1  0
M  END
>  <shape_align_shape_tanimoto>  (1) 
0.44224380445499456

>  <shape_align_color_tanimoto>  (1) 
0.040720485593704753

>  <metric>  (1) 
shape

>  <metric_score>  (1) 
0.442

>  <template_pid>  (1) 
1HBJ

>  <template_shape_score>  (1) 
0.442

>  <template_color_score>  (1) 
0.041

>  <template_combo_score>  (1) 
0.241

$$$$
1HBJ_color_pose
     RDKit          3D

 28 30  0  0  0  0  0  0  0  0999 V2000
  -36.6975  153.3487   78.5116 C   0  0  0  0  0  0  0  0  0  0  0  0
  -36.9799  154.6102   79.1722 C   0  0  0  0  0  0  0  0  0  0  0  0
  -37.8510  155.4630   78.5549 N   0  0  0  0  0  0  0  0  0  0  0  0
  -38.2124  156.6449   79.0837 C   0  0  0  0  0  0  0  0  0  0  0  0
  -39.0999  157.4697   78.4122 C   0  0  0  0  0  0  0  0  0  0  0  0
  -39.4468  158.6745   78.9864 C   0  0  0  0  0  0  0  0  0  0  0  0
  -38.9111  159.0366   80.2071 C   0  0  0  0  0  0  0  0  0  0  0  0
  -38.0181  158.1953   80.8717 C   0  0  0  0  0  0  0  0  0  0  0  0
  -37.4996  158.5441   82.0523 F   0  0  0  0  0  0  0  0  0  0  0  0
  -37.6614  156.9796   80.3032 C   0  0  0  0  0  0  0  0  0  0  0  0
  -36.7801  156.1286   80.9377 C   0  0  0  0  0  0  0  0  0  0  0  0
  -36.2462  156.5335   82.1985 N   0  0  0  0  0  0  0  0  0  0  0  0
  -36.4109  154.8974   80.3732 C   0  0  0  0  0  0  0  0  0  0  0  0
  -35.4448  154.1076   81.1302 C   0  0  0  0  0  0  0  0  0  0  0  0
  -33.7497  154.1917   80.7031 S   0  0  0  0  0  0  0  0  0  0  0  0
  -33.0846  153.4600   79.2698 C   0  0  0  0  0  0  0  0  0  0  0  0
  -32.9807  151.9819   79.2492 C   0  0  0  0  0  0  0  0  0  0  0  0
  -31.8900  151.4354   79.9134 C   0  0  0  0  0  0  0  0  0  0  0  0
  -31.6471  150.0787   79.9611 C   0  0  0  0  0  0  0  0  0  0  0  0
  -32.5059  149.2011   79.3317 C   0  0  0  0  0  0  0  0  0  0  0  0
  -33.5901  149.7440   78.6708 C   0  0  0  0  0  0  0  0  0  0  0  0
  -34.5463  148.8116   77.9738 C   0  0  2  0  0  0  0  0  0  0  0  0
  -34.8845  147.7245   78.7524 O   0  0  0  0  0  0  0  0  0  0  0  0
  -33.7869  148.3775   76.7123 C   0  0  0  0  0  0  0  0  0  0  0  0
  -33.5201  149.5308   75.9886 F   0  0  0  0  0  0  0  0  0  0  0  0
  -34.5521  147.5425   75.9220 F   0  0  0  0  0  0  0  0  0  0  0  0
  -32.5979  147.8112   77.1173 F   0  0  0  0  0  0  0  0  0  0  0  0
  -33.8231  151.1177   78.6306 C   0  0  0  0  0  0  0  0  0  0  0  0
  1  2  1  0
  2  3  2  0
  3  4  1  0
  4  5  2  0
  5  6  1  0
  6  7  2  0
  7  8  1  0
  8  9  1  0
  8 10  2  0
 10 11  1  0
 11 12  1  0
 11 13  2  0
 13 14  1  0
 14 15  1  0
 15 16  1  0
 16 17  1  0
 17 18  2  0
 18 19  1  0
 19 20  2  0
 20 21  1  0
 21 22  1  0
 22 23  1  1
 22 24  1  0
 24 25  1  0
 24 26  1  0
 24 27  1  0
 21 28  2  0
 13  2  1  0
 28 17  1  0
 10  4  1  0
M  END
>  <shape_align_shape_tanimoto>  (2) 
0.41606764114588507

>  <shape_align_color_tanimoto>  (2) 
0.075282758129416025

>  <metric>  (2) 
color

>  <metric_score>  (2) 
0.075

>  <template_pid>  (2) 
1HBJ

>  <template_shape_score>  (2) 
0.416

>  <template_color_score>  (2) 
0.075

>  <template_combo_score>  (2) 
0.246

$$$$
1HBJ_combo_pose
     RDKit          3D

 28 30  0  0  0  0  0  0  0  0999 V2000
  -39.5647  157.9256   77.2056 C   0  0  0  0  0  0  0  0  0  0  0  0
  -38.7127  157.4245   78.3113 C   0  0  0  0  0  0  0  0  0  0  0  0
  -38.2157  156.1820   78.1778 N   0  0  0  0  0  0  0  0  0  0  0  0
  -37.4222  155.6106   79.0942 C   0  0  0  0  0  0  0  0  0  0  0  0
  -36.9321  154.3337   78.9192 C   0  0  0  0  0  0  0  0  0  0  0  0
  -36.1154  153.7592   79.8701 C   0  0  0  0  0  0  0  0  0  0  0  0
  -35.8014  154.4999   81.0048 C   0  0  0  0  0  0  0  0  0  0  0  0
  -36.3070  155.7773   81.1534 C   0  0  0  0  0  0  0  0  0  0  0  0
  -35.9424  156.4344   82.2967 F   0  0  0  0  0  0  0  0  0  0  0  0
  -37.1265  156.3779   80.2188 C   0  0  0  0  0  0  0  0  0  0  0  0
  -37.6243  157.6573   80.3809 C   0  0  0  0  0  0  0  0  0  0  0  0
  -37.2803  158.3772   81.5264 N   0  0  0  0  0  0  0  0  0  0  0  0
  -38.4228  158.2076   79.4402 C   0  0  0  0  0  0  0  0  0  0  0  0
  -39.0240  159.5586   79.4509 C   0  0  0  0  0  0  0  0  0  0  0  0
  -40.7846  159.4879   79.8072 S   0  0  0  0  0  0  0  0  0  0  0  0
  -41.1907  159.1157   81.5188 C   0  0  0  0  0  0  0  0  0  0  0  0
  -40.9180  160.2668   82.4071 C   0  0  0  0  0  0  0  0  0  0  0  0
  -39.7810  160.5088   83.1032 C   0  0  0  0  0  0  0  0  0  0  0  0
  -39.6110  161.6374   83.9091 C   0  0  0  0  0  0  0  0  0  0  0  0
  -40.6363  162.5721   84.0226 C   0  0  0  0  0  0  0  0  0  0  0  0
  -41.7990  162.3371   83.3196 C   0  0  0  0  0  0  0  0  0  0  0  0
  -42.9619  163.2817   83.3800 C   0  0  2  0  0  0  0  0  0  0  0  0
  -44.1517  162.5832   83.5875 O   0  0  0  0  0  0  0  0  0  0  0  0
  -43.0983  164.0912   82.0946 C   0  0  0  0  0  0  0  0  0  0  0  0
  -44.2028  164.9133   82.2874 F   0  0  0  0  0  0  0  0  0  0  0  0
  -41.9735  164.8791   81.9194 F   0  0  0  0  0  0  0  0  0  0  0  0
  -43.3101  163.3093   80.9893 F   0  0  0  0  0  0  0  0  0  0  0  0
  -41.9422  161.2072   82.5251 C   0  0  0  0  0  0  0  0  0  0  0  0
  1  2  1  0
  2  3  2  0
  3  4  1  0
  4  5  2  0
  5  6  1  0
  6  7  2  0
  7  8  1  0
  8  9  1  0
  8 10  2  0
 10 11  1  0
 11 12  1  0
 11 13  2  0
 13 14  1  0
 14 15  1  0
 15 16  1  0
 16 17  1  0
 17 18  2  0
 18 19  1  0
 19 20  2  0
 20 21  1  0
 21 22  1  0
 22 23  1  6
 22 24  1  0
 24 25  1  0
 24 26  1  0
 24 27  1  0
 21 28  2  0
 13  2  1  0
 28 17  1  0
 10  4  1  0
M  END
>  <shape_align_shape_tanimoto>  (3) 
0.42637878890836478

>  <shape_align_color_tanimoto>  (3) 
0.071127834705478024

>  <metric>  (3) 
combo

>  <metric_score>  (3) 
0.249

>  <template_pid>  (3) 
1HBJ

>  <template_shape_score>  (3) 
0.426

>  <template_color_score>  (3) 
0.071

>  <template_combo_score>  (3) 
0.249

$$$$
