4KAI_shape_pose
     RDKit          3D

 39 43  0  0  0  0  0  0  0  0999 V2000
  -24.6151   -1.7458   31.0258 C   0  0  0  0  0  1  0  0  0  0  0  0
  -24.8477   -2.3471   32.3112 N   0  0  0  0  0  2  0  0  0  0  0  0
  -25.6088   -3.5074   32.5152 C   0  0  0  0  0  0  0  0  0  0  0  0
  -25.7194   -3.9207   33.6864 O   0  0  0  0  0  0  0  0  0  0  0  0
  -26.2633   -4.2405   31.4658 C   0  0  0  0  0  0  0  0  0  0  0  0
  -27.6091   -4.2506   31.1500 C   0  0  0  0  0  0  0  0  0  0  0  0
  -28.6835   -3.5108   31.8138 C   0  0  0  0  0  0  0  0  0  0  0  0
  -28.4449   -2.6760   32.8908 C   0  0  0  0  0  3  0  0  0  0  0  0
  -29.4555   -1.9601   33.5396 C   0  0  0  0  0  3  0  0  0  0  0  0
  -30.7693   -2.1021   33.0688 C   0  0  0  0  0  0  0  0  0  0  0  0
  -31.8193   -1.4547   33.6255 F   0  0  0  0  0  0  0  0  0  0  0  0
  -31.0191   -2.9330   31.9958 C   0  0  0  0  0  3  0  0  0  0  0  0
  -29.9993   -3.6469   31.3511 C   0  0  0  0  0  3  0  0  0  0  0  0
  -27.7667   -5.0675   30.1146 O   0  0  0  0  0  0  0  0  0  0  0  0
  -26.6164   -5.5705   29.7587 C   0  0  0  0  0  0  0  0  0  0  0  0
  -26.3160   -6.4551   28.7448 C   0  0  0  0  0  3  0  0  0  0  0  0
  -24.9862   -6.8528   28.5607 C   0  0  0  0  0  0  0  0  0  0  0  0
  -24.7688   -7.7964   27.5153 N   0  0  0  0  0  0  0  0  0  0  0  0
  -24.9075   -9.2354   27.8299 C   0  0  0  0  0  2  0  0  0  0  0  0
  -24.8559   -9.4930   29.2795 C   0  0  0  0  0  0  0  0  0  0  0  0
  -24.0553  -10.5331   29.7590 C   0  0  0  0  0  3  0  0  0  0  0  0
  -23.9807  -10.7881   31.1174 C   0  0  0  0  0  3  0  0  0  0  0  0
  -24.6771  -10.0459   32.0464 C   0  0  0  0  0  0  0  0  0  0  0  0
  -24.6047  -10.3161   33.5793 B   0  0  0  0  0  0  0  0  0  0  0  0
  -23.3196  -10.5754   34.2396 O   0  0  0  0  0  0  0  0  0  0  0  0
  -25.8125  -10.4514   34.3764 O   0  0  0  0  0  0  0  0  0  0  0  0
  -25.4696   -9.0172   31.5798 C   0  0  0  0  0  0  0  0  0  0  0  0
  -26.2012   -8.2142   32.3792 F   0  0  0  0  0  0  0  0  0  0  0  0
  -25.5416   -8.7653   30.2262 C   0  0  0  0  0  3  0  0  0  0  0  0
  -24.3692   -7.3089   25.9056 S   0  0  0  0  0  0  0  0  0  0  0  0
  -22.8106   -6.4175   25.9020 C   0  0  0  0  0  1  0  0  0  0  0  0
  -24.1669   -8.5326   25.0633 O   0  0  0  0  0  0  0  0  0  0  0  0
  -25.4401   -6.4526   25.2943 O   0  0  0  0  0  0  0  0  0  0  0  0
  -23.9668   -6.3868   29.3609 C   0  0  0  0  0  0  0  0  0  0  0  0
  -22.5624   -6.7328   29.2146 C   0  0  0  0  0  3  0  0  0  0  0  0
  -21.8965   -7.4606   30.2911 C   0  0  0  0  0  3  0  0  0  0  0  0
  -21.9389   -7.9077   28.9268 C   0  0  0  0  0  3  0  0  0  0  0  0
  -24.3104   -5.4923   30.3774 C   0  0  0  0  0  3  0  0  0  0  0  0
  -25.6133   -5.0887   30.5744 C   0  0  0  0  0  0  0  0  0  0  0  0
  1  2  1  0
  2  3  1  0
  3  4  2  0
  3  5  1  0
  5  6  2  0
  6  7  1  0
  7  8  2  0
  8  9  1  0
  9 10  2  0
 10 11  1  0
 10 12  1  0
 12 13  2  0
  6 14  1  0
 14 15  1  0
 15 16  2  0
 16 17  1  0
 17 18  1  0
 18 19  1  0
 19 20  1  0
 20 21  2  0
 21 22  1  0
 22 23  2  0
 23 24  1  0
 24 25  1  0
 24 26  1  0
 23 27  1  0
 27 28  1  0
 27 29  2  0
 18 30  1  0
 30 31  1  0
 30 32  2  0
 30 33  2  0
 17 34  2  0
 34 35  1  0
 35 36  1  0
 36 37  2  0
 34 38  1  0
 38 39  2  0
 39  5  1  0
 13  7  1  0
 39 15  1  0
 29 20  1  0
 37 35  1  0
M  RAD  8   1   2   2   2   8   2   9   2  12   2  13   2  16   2  19   3
M  RAD  8  21   2  22   2  29   2  31   2  35   2  36   2  37   2  38   2
M  CHG  2  25   1  26   1
M  END
>  <shape_align_shape_tanimoto>  (1) 
0.56252372378705928

>  <shape_align_color_tanimoto>  (1) 
0.015147208652339936

>  <metric>  (1) 
shape

>  <metric_score>  (1) 
0.563

>  <template_pid>  (1) 
4KAI

>  <template_shape_score>  (1) 
0.563

>  <template_color_score>  (1) 
0.015

>  <template_combo_score>  (1) 
0.289

$$$$
4KAI_color_pose
     RDKit          3D

 39 43  0  0  0  0  0  0  0  0999 V2000
  -25.4701   -8.5870   26.0297 C   0  0  0  0  0  1  0  0  0  0  0  0
  -24.3519   -7.9159   25.4009 N   0  0  0  0  0  2  0  0  0  0  0  0
  -23.5374   -6.9449   26.0500 C   0  0  0  0  0  0  0  0  0  0  0  0
  -22.8594   -6.1885   25.3040 O   0  0  0  0  0  0  0  0  0  0  0  0
  -23.5146   -6.8596   27.5069 C   0  0  0  0  0  0  0  0  0  0  0  0
  -22.4407   -6.9899   28.3627 C   0  0  0  0  0  0  0  0  0  0  0  0
  -21.0596   -7.2476   27.9770 C   0  0  0  0  0  0  0  0  0  0  0  0
  -20.6614   -7.3947   26.6608 C   0  0  0  0  0  3  0  0  0  0  0  0
  -19.3279   -7.6389   26.3643 C   0  0  0  0  0  3  0  0  0  0  0  0
  -18.3770   -7.7403   27.3577 C   0  0  0  0  0  0  0  0  0  0  0  0
  -17.0941   -7.9777   27.0343 F   0  0  0  0  0  0  0  0  0  0  0  0
  -18.7539   -7.5961   28.6849 C   0  0  0  0  0  3  0  0  0  0  0  0
  -20.0749   -7.3568   28.9356 C   0  0  0  0  0  3  0  0  0  0  0  0
  -22.8724   -6.8413   29.6031 O   0  0  0  0  0  0  0  0  0  0  0  0
  -24.1618   -6.6223   29.6071 C   0  0  0  0  0  0  0  0  0  0  0  0
  -24.9927   -6.4157   30.6905 C   0  0  0  0  0  3  0  0  0  0  0  0
  -26.3543   -6.1998   30.4453 C   0  0  0  0  0  0  0  0  0  0  0  0
  -27.1691   -5.9950   31.5774 N   0  0  0  0  0  0  0  0  0  0  0  0
  -27.7671   -7.1882   32.1847 C   0  0  0  0  0  2  0  0  0  0  0  0
  -26.7147   -8.2594   32.2998 C   0  0  0  0  0  0  0  0  0  0  0  0
  -26.4265   -9.0161   31.1824 C   0  0  0  0  0  3  0  0  0  0  0  0
  -25.4619  -10.0127   31.2510 C   0  0  0  0  0  3  0  0  0  0  0  0
  -24.7822  -10.2598   32.4283 C   0  0  0  0  0  0  0  0  0  0  0  0
  -23.6950  -11.3986   32.4677 B   0  0  0  0  0  0  0  0  0  0  0  0
  -22.8072  -11.4197   33.6388 O   0  0  0  0  0  0  0  0  0  0  0  0
  -23.0211  -11.7298   31.1917 O   0  0  0  0  0  0  0  0  0  0  0  0
  -25.0781   -9.4973   33.5402 C   0  0  0  0  0  0  0  0  0  0  0  0
  -24.3903   -9.7718   34.6711 F   0  0  0  0  0  0  0  0  0  0  0  0
  -26.0441   -8.4947   33.4827 C   0  0  0  0  0  3  0  0  0  0  0  0
  -27.4450   -4.4128   32.2124 S   0  0  0  0  0  0  0  0  0  0  0  0
  -25.8452   -3.7696   32.7125 C   0  0  0  0  0  1  0  0  0  0  0  0
  -28.4173   -4.4199   33.3345 O   0  0  0  0  0  0  0  0  0  0  0  0
  -27.9311   -3.5531   31.0711 O   0  0  0  0  0  0  0  0  0  0  0  0
  -26.8332   -6.1974   29.1458 C   0  0  0  0  0  0  0  0  0  0  0  0
  -28.2856   -5.9616   28.9713 C   0  0  0  0  0  3  0  0  0  0  0  0
  -28.5678   -4.7756   28.0837 C   0  0  0  0  0  3  0  0  0  0  0  0
  -28.8482   -5.9759   27.5922 C   0  0  0  0  0  3  0  0  0  0  0  0
  -25.9660   -6.4085   28.0902 C   0  0  0  0  0  3  0  0  0  0  0  0
  -24.6198   -6.6240   28.2995 C   0  0  0  0  0  0  0  0  0  0  0  0
  1  2  1  0
  2  3  1  0
  3  4  2  0
  3  5  1  0
  5  6  2  0
  6  7  1  0
  7  8  2  0
  8  9  1  0
  9 10  2  0
 10 11  1  0
 10 12  1  0
 12 13  2  0
  6 14  1  0
 14 15  1  0
 15 16  2  0
 16 17  1  0
 17 18  1  0
 18 19  1  0
 19 20  1  0
 20 21  2  0
 21 22  1  0
 22 23  2  0
 23 24  1  0
 24 25  1  0
 24 26  1  0
 23 27  1  0
 27 28  1  0
 27 29  2  0
 18 30  1  0
 30 31  1  0
 30 32  2  0
 30 33  2  0
 17 34  2  0
 34 35  1  0
 35 36  1  0
 36 37  2  0
 34 38  1  0
 38 39  2  0
 39  5  1  0
 13  7  1  0
 39 15  1  0
 29 20  1  0
 37 35  1  0
M  RAD  8   1   2   2   2   8   2   9   2  12   2  13   2  16   2  19   3
M  RAD  8  21   2  22   2  29   2  31   2  35   2  36   2  37   2  38   2
M  CHG  2  25   1  26   1
M  END
>  <shape_align_shape_tanimoto>  (2) 
0.45792873920163607

>  <shape_align_color_tanimoto>  (2) 
0.09829803710310045

>  <metric>  (2) 
color

>  <metric_score>  (2) 
0.098

>  <template_pid>  (2) 
4KAI

>  <template_shape_score>  (2) 
0.458

>  <template_color_score>  (2) 
0.098

>  <template_combo_score>  (2) 
0.278

$$$$
4KAI_combo_pose
     RDKit          3D

 39 43  0  0  0  0  0  0  0  0999 V2000
  -25.1203   -0.9925   30.1035 C   0  0  0  0  0  1  0  0  0  0  0  0
  -24.6532   -1.8150   31.1784 N   0  0  0  0  0  2  0  0  0  0  0  0
  -25.4310   -2.7637   31.8922 C   0  0  0  0  0  0  0  0  0  0  0  0
  -25.5158   -2.6516   33.1408 O   0  0  0  0  0  0  0  0  0  0  0  0
  -26.1383   -3.8617   31.2622 C   0  0  0  0  0  0  0  0  0  0  0  0
  -27.4953   -4.1124   31.2533 C   0  0  0  0  0  0  0  0  0  0  0  0
  -28.5197   -3.2951   31.8977 C   0  0  0  0  0  0  0  0  0  0  0  0
  -29.8462   -3.6605   31.8115 C   0  0  0  0  0  3  0  0  0  0  0  0
  -30.8499   -2.9029   32.4144 C   0  0  0  0  0  3  0  0  0  0  0  0
  -30.4921   -1.7559   33.1149 C   0  0  0  0  0  0  0  0  0  0  0  0
  -31.4259   -0.9797   33.7219 F   0  0  0  0  0  0  0  0  0  0  0  0
  -29.1514   -1.3662   33.2152 C   0  0  0  0  0  3  0  0  0  0  0  0
  -28.1780   -2.1535   32.5966 C   0  0  0  0  0  3  0  0  0  0  0  0
  -27.7137   -5.2015   30.5734 O   0  0  0  0  0  0  0  0  0  0  0  0
  -26.5950   -5.7168   30.1136 C   0  0  0  0  0  0  0  0  0  0  0  0
  -26.2715   -6.8259   29.3593 C   0  0  0  0  0  3  0  0  0  0  0  0
  -24.9855   -7.1495   29.0044 C   0  0  0  0  0  0  0  0  0  0  0  0
  -24.6375   -8.2855   28.2256 N   0  0  0  0  0  0  0  0  0  0  0  0
  -24.3213   -9.5764   28.7409 C   0  0  0  0  0  2  0  0  0  0  0  0
  -24.6493   -9.7550   30.1550 C   0  0  0  0  0  0  0  0  0  0  0  0
  -25.7781   -9.2869   30.7803 C   0  0  0  0  0  3  0  0  0  0  0  0
  -26.0449   -9.4826   32.1176 C   0  0  0  0  0  3  0  0  0  0  0  0
  -25.1471  -10.1833   32.8951 C   0  0  0  0  0  0  0  0  0  0  0  0
  -25.3701  -10.4514   34.4170 B   0  0  0  0  0  0  0  0  0  0  0  0
  -26.2502  -11.5533   34.8627 O   0  0  0  0  0  0  0  0  0  0  0  0
  -24.2754  -10.1474   35.3626 O   0  0  0  0  0  0  0  0  0  0  0  0
  -24.0131  -10.6561   32.2765 C   0  0  0  0  0  0  0  0  0  0  0  0
  -23.0901  -11.3547   32.9903 F   0  0  0  0  0  0  0  0  0  0  0  0
  -23.7380  -10.4648   30.9387 C   0  0  0  0  0  3  0  0  0  0  0  0
  -24.6026   -8.0439   26.4966 S   0  0  0  0  0  0  0  0  0  0  0  0
  -26.2212   -7.5753   25.9148 C   0  0  0  0  0  1  0  0  0  0  0  0
  -24.0973   -9.2604   25.8170 O   0  0  0  0  0  0  0  0  0  0  0  0
  -23.6666   -6.9024   26.1666 O   0  0  0  0  0  0  0  0  0  0  0  0
  -23.9535   -6.3308   29.4175 C   0  0  0  0  0  0  0  0  0  0  0  0
  -22.5278   -6.5923   29.0867 C   0  0  0  0  0  3  0  0  0  0  0  0
  -21.5336   -6.2158   30.1445 C   0  0  0  0  0  3  0  0  0  0  0  0
  -21.8337   -7.5460   30.0138 C   0  0  0  0  0  3  0  0  0  0  0  0
  -24.2608   -5.2186   30.1721 C   0  0  0  0  0  3  0  0  0  0  0  0
  -25.5521   -4.8897   30.5309 C   0  0  0  0  0  0  0  0  0  0  0  0
  1  2  1  0
  2  3  1  0
  3  4  2  0
  3  5  1  0
  5  6  2  0
  6  7  1  0
  7  8  2  0
  8  9  1  0
  9 10  2  0
 10 11  1  0
 10 12  1  0
 12 13  2  0
  6 14  1  0
 14 15  1  0
 15 16  2  0
 16 17  1  0
 17 18  1  0
 18 19  1  0
 19 20  1  0
 20 21  2  0
 21 22  1  0
 22 23  2  0
 23 24  1  0
 24 25  1  0
 24 26  1  0
 23 27  1  0
 27 28  1  0
 27 29  2  0
 18 30  1  0
 30 31  1  0
 30 32  2  0
 30 33  2  0
 17 34  2  0
 34 35  1  0
 35 36  1  0
 36 37  2  0
 34 38  1  0
 38 39  2  0
 39  5  1  0
 13  7  1  0
 39 15  1  0
 29 20  1  0
 37 35  1  0
M  RAD  8   1   2   2   2   8   2   9   2  12   2  13   2  16   2  19   3
M  RAD  8  21   2  22   2  29   2  31   2  35   2  36   2  37   2  38   2
M  CHG  2  25   1  26   1
M  END
>  <shape_align_shape_tanimoto>  (3) 
0.5520169208351583

>  <shape_align_color_tanimoto>  (3) 
0.038024311393038183

>  <metric>  (3) 
combo

>  <metric_score>  (3) 
0.295

>  <template_pid>  (3) 
4KAI

>  <template_shape_score>  (3) 
0.552

>  <template_color_score>  (3) 
0.038

>  <template_combo_score>  (3) 
0.295

$$$$
