5FF6_shape_pose
     RDKit          3D

102103  0  0  0  0  0  0  0  0999 V2000
  -11.2198   40.6095    9.4211 C   0  0  0  0  0  0  0  0  0  0  0  0
  -12.1300   39.6592   10.0920 C   0  0  0  0  0  0  0  0  0  0  0  0
  -11.3211   38.4525   10.5598 C   0  0  0  0  0  0  0  0  0  0  0  0
  -12.9171   40.2558   11.2133 C   0  0  0  0  0  0  0  0  0  0  0  0
  -12.2173   40.8068   12.3822 C   0  0  2  0  0  0  0  0  0  0  0  0
  -13.2937   41.3262   13.3288 N   0  0  0  0  0  0  0  0  0  0  0  0
  -12.9271   41.2754   14.6537 C   0  0  0  0  0  0  0  0  0  0  0  0
  -11.7148   40.8844   14.8218 O   0  0  0  0  0  0  0  0  0  0  0  0
  -13.5913   41.5652   15.9682 C   0  0  2  0  0  0  0  0  0  0  0  0
  -14.0264   42.9468   16.1819 C   0  0  0  0  0  0  0  0  0  0  0  0
  -14.6616   43.0242   17.5146 C   0  0  0  0  0  0  0  0  0  0  0  0
  -14.8466   42.3179   18.4419 O   0  0  0  0  0  0  0  0  0  0  0  0
  -15.2264   44.3983   17.6927 O   0  0  0  0  0  0  0  0  0  0  0  0
  -12.4552   41.1918   16.8854 N   0  0  0  0  0  0  0  0  0  0  0  0
  -12.2723   39.8199   17.1732 C   0  0  0  0  0  0  0  0  0  0  0  0
  -13.2335   39.0670   16.7758 O   0  0  0  0  0  0  0  0  0  0  0  0
  -11.1647   39.1703   17.8362 C   0  0  2  0  0  0  0  0  0  0  0  0
  -11.5151   38.1181   18.8197 C   0  0  0  0  0  0  0  0  0  0  0  0
  -12.3768   37.0187   18.4202 C   0  0  0  0  0  0  0  0  0  0  0  0
  -13.6901   37.0455   18.9695 C   0  0  0  0  0  0  0  0  0  0  0  0
  -14.6295   36.0353   18.7048 C   0  0  0  0  0  0  0  0  0  0  0  0
  -14.2514   34.9647   17.8625 C   0  0  0  0  0  0  0  0  0  0  0  0
  -12.9441   34.9206   17.3018 C   0  0  0  0  0  0  0  0  0  0  0  0
  -12.1745   35.9377   17.6453 C   0  0  0  0  0  0  0  0  0  0  0  0
  -10.2819   40.1522   18.4818 N   0  0  0  0  0  0  0  0  0  0  0  0
   -9.3454   40.9808   17.7957 C   0  0  0  0  0  0  0  0  0  0  0  0
   -9.3155   40.8487   16.5825 O   0  0  0  0  0  0  0  0  0  0  0  0
   -8.4917   41.9128   18.5975 C   0  0  2  0  0  0  0  0  0  0  0  0
   -7.9402   41.1529   19.8149 C   0  0  0  0  0  0  0  0  0  0  0  0
   -6.9925   41.9859   20.6693 C   0  0  0  0  0  0  0  0  0  0  0  0
   -6.6355   41.1351   21.9090 C   0  0  0  0  0  0  0  0  0  0  0  0
   -5.3272   41.1517   22.3900 N   0  0  0  0  0  0  0  0  0  0  0  0
   -7.6198   40.5082   22.3430 O   0  0  0  0  0  0  0  0  0  0  0  0
   -9.4220   42.8901   19.2186 N   0  0  0  0  0  0  0  0  0  0  0  0
   -8.9913   44.2408   19.4845 C   0  0  0  0  0  0  0  0  0  0  0  0
   -7.8685   44.4500   18.8353 O   0  0  0  0  0  0  0  0  0  0  0  0
   -9.5336   45.3055   20.2342 C   0  0  1  0  0  0  0  0  0  0  0  0
   -9.5292   46.5697   19.4750 N   0  0  0  0  0  0  0  0  0  0  0  0
  -10.7920   45.1684   20.9823 C   0  0  0  0  0  0  0  0  0  0  0  0
  -10.7631   44.1125   22.4495 S   0  0  0  0  0  0  0  0  0  0  0  0
  -10.5628   42.0826   22.0057 S   0  0  0  0  0  0  0  0  0  0  0  0
  -12.0941   41.1502   21.8064 C   0  0  0  0  0  0  0  0  0  0  0  0
  -12.4572   40.4816   23.1315 C   0  0  1  0  0  0  0  0  0  0  0  0
  -13.7763   39.8407   23.0124 C   0  0  0  0  0  0  0  0  0  0  0  0
  -14.5551   39.4487   23.8843 O   0  0  0  0  0  0  0  0  0  0  0  0
  -14.2429   39.6338   21.6715 O   0  0  0  0  0  0  0  0  0  0  0  0
  -11.4363   39.4435   23.3870 N   0  0  0  0  0  0  0  0  0  0  0  0
  -11.0811   38.9810   24.7133 C   0  0  0  0  0  0  0  0  0  0  0  0
  -11.7938   39.5275   25.5875 O   0  0  0  0  0  0  0  0  0  0  0  0
  -10.0810   38.0176   25.0455 C   0  0  2  0  0  0  0  0  0  0  0  0
   -9.6213   38.2605   26.4834 C   0  0  0  0  0  0  0  0  0  0  0  0
   -9.0572   39.6153   26.6733 C   0  0  0  0  0  0  0  0  0  0  0  0
   -7.7329   39.9192   26.0426 C   0  0  0  0  0  0  0  0  0  0  0  0
   -6.6457   39.0331   26.6196 C   0  0  0  0  0  0  0  0  0  0  0  0
   -5.3898   39.4140   26.0126 N   0  0  0  0  0  0  0  0  0  0  0  0
   -9.0494   37.7307   24.1087 N   0  0  0  0  0  0  0  0  0  0  0  0
   -8.1556   36.5414   24.2069 C   0  0  0  0  0  0  0  0  0  0  0  0
   -8.3208   35.9037   25.1976 O   0  0  0  0  0  0  0  0  0  0  0  0
   -7.1797   36.3109   23.0770 C   0  0  2  0  0  0  0  0  0  0  0  0
   -5.9386   37.2375   23.4352 C   0  0  0  0  0  0  0  0  0  0  0  0
   -4.9564   37.0114   22.3673 C   0  0  0  0  0  0  0  0  0  0  0  0
   -3.6678   37.8568   22.5586 C   0  0  0  0  0  0  0  0  0  0  0  0
   -2.6477   37.4633   21.6896 N   0  0  0  0  0  0  0  0  0  0  0  0
   -3.7419   38.6943   23.4164 O   0  0  0  0  0  0  0  0  0  0  0  0
   -7.6149   36.6361   21.7622 N   0  0  0  0  0  0  0  0  0  0  0  0
   -7.1644   35.8854   20.5810 C   0  0  0  0  0  0  0  0  0  0  0  0
   -6.2814   35.0543   20.7014 O   0  0  0  0  0  0  0  0  0  0  0  0
   -7.8539   36.2308   19.3012 C   0  0  2  0  0  0  0  0  0  0  0  0
   -8.7672   35.0231   19.0913 C   0  0  0  0  0  0  0  0  0  0  0  0
   -9.7428   34.7158   20.1701 C   0  0  0  0  0  0  0  0  0  0  0  0
  -10.4407   33.4491   19.6218 C   0  0  0  0  0  0  0  0  0  0  0  0
  -11.3990   32.8558   20.5006 N   0  0  0  0  0  0  0  0  0  0  0  0
  -12.0204   31.6603   19.8248 C   0  0  0  0  0  0  0  0  0  0  0  0
  -13.0096   30.9521   20.6131 N   0  0  0  0  0  0  0  0  0  0  0  0
  -11.6650   31.3462   18.6637 N   0  0  0  0  0  0  0  0  0  0  0  0
   -6.9958   36.0648   18.1055 N   0  0  0  0  0  0  0  0  0  0  0  0
   -6.5929   37.2760   17.3655 C   0  0  0  0  0  0  0  0  0  0  0  0
   -6.7778   38.2854   17.9344 O   0  0  0  0  0  0  0  0  0  0  0  0
   -6.0217   37.0007   16.0087 C   0  0  2  0  0  0  0  0  0  0  0  0
   -5.0140   35.9940   15.7913 C   0  0  0  0  0  0  0  0  0  0  0  0
   -3.6669   36.1112   16.3986 C   0  0  0  0  0  0  0  0  0  0  0  0
   -2.8659   34.8393   16.0449 C   0  0  0  0  0  0  0  0  0  0  0  0
   -2.7648   34.6834   14.5921 N   0  0  0  0  0  0  0  0  0  0  0  0
   -2.1615   33.5292   13.9760 C   0  0  0  0  0  0  0  0  0  0  0  0
   -2.2325   33.5662   12.5462 N   0  0  0  0  0  0  0  0  0  0  0  0
   -1.7012   32.6481   14.7295 N   0  0  0  0  0  0  0  0  0  0  0  0
   -5.6771   38.3109   15.3855 N   0  0  0  0  0  0  0  0  0  0  0  0
   -6.5891   39.0681   14.6257 C   0  0  0  0  0  0  0  0  0  0  0  0
   -7.6916   38.4683   14.3910 O   0  0  0  0  0  0  0  0  0  0  0  0
   -6.3090   40.4586   14.1340 C   0  0  2  0  0  0  0  0  0  0  0  0
   -6.0370   41.3512   15.3786 C   0  0  1  0  0  0  0  0  0  0  0  0
   -4.7240   41.0920   16.0351 C   0  0  0  0  0  0  0  0  0  0  0  0
   -5.9202   42.6491   14.8134 O   0  0  0  0  0  0  0  0  0  0  0  0
   -7.5097   41.0237   13.5111 N   0  0  0  0  0  0  0  0  0  0  0  0
   -7.5327   42.0072   12.4820 C   0  0  0  0  0  0  0  0  0  0  0  0
   -6.4353   42.4282   12.0875 O   0  0  0  0  0  0  0  0  0  0  0  0
   -8.8100   42.5288   11.9037 C   0  0  2  0  0  0  0  0  0  0  0  0
   -9.1177   43.8163   12.7803 C   0  0  0  0  0  0  0  0  0  0  0  0
   -9.2570   43.3801   14.0592 O   0  0  0  0  0  0  0  0  0  0  0  0
   -9.8930   41.6307   12.1458 N   0  0  0  0  0  0  0  0  0  0  0  0
  -11.2905   41.9779   12.1687 C   0  0  0  0  0  0  0  0  0  0  0  0
  -11.6014   43.1235   12.0273 O   0  0  0  0  0  0  0  0  0  0  0  0
  1  2  1  0
  2  3  1  0
  2  4  1  0
  5  4  1  6
  5  6  1  0
  6  7  1  0
  7  8  2  0
  7  9  1  0
  9 10  1  6
 10 11  1  0
 11 12  2  0
 11 13  1  0
  9 14  1  0
 14 15  1  0
 15 16  2  0
 15 17  1  0
 17 18  1  1
 18 19  1  0
 19 20  2  0
 20 21  1  0
 21 22  2  0
 22 23  1  0
 23 24  2  0
 17 25  1  0
 25 26  1  0
 26 27  2  0
 26 28  1  0
 28 29  1  1
 29 30  1  0
 30 31  1  0
 31 32  1  0
 31 33  2  0
 28 34  1  0
 34 35  1  0
 35 36  2  0
 35 37  1  0
 37 38  1  6
 37 39  1  0
 39 40  1  0
 40 41  1  0
 41 42  1  0
 42 43  1  0
 43 44  1  6
 44 45  2  0
 44 46  1  0
 43 47  1  0
 47 48  1  0
 48 49  2  0
 48 50  1  0
 50 51  1  1
 51 52  1  0
 52 53  1  0
 53 54  1  0
 54 55  1  0
 50 56  1  0
 56 57  1  0
 57 58  2  0
 57 59  1  0
 59 60  1  1
 60 61  1  0
 61 62  1  0
 62 63  1  0
 62 64  2  0
 59 65  1  0
 65 66  1  0
 66 67  2  0
 66 68  1  0
 68 69  1  6
 69 70  1  0
 70 71  1  0
 71 72  1  0
 72 73  1  0
 73 74  1  0
 73 75  2  0
 68 76  1  0
 76 77  1  0
 77 78  2  0
 77 79  1  0
 79 80  1  1
 80 81  1  0
 81 82  1  0
 82 83  1  0
 83 84  1  0
 84 85  1  0
 84 86  2  0
 79 87  1  0
 87 88  1  0
 88 89  2  0
 88 90  1  0
 90 91  1  0
 91 92  1  6
 91 93  1  0
 90 94  1  1
 94 95  1  0
 95 96  2  0
 95 97  1  0
 97 98  1  1
 98 99  1  0
 97100  1  0
100101  1  0
101102  2  0
101  5  1  0
 24 19  1  0
M  CHG  6  13  -1  38   1  46  -1  55   1  75   1  86   1
M  END
>  <shape_align_shape_tanimoto>  (1) 
0.27332094503913196

>  <shape_align_color_tanimoto>  (1) 
0.020353549070705891

>  <metric>  (1) 
shape

>  <metric_score>  (1) 
0.273

>  <template_pid>  (1) 
5FF6

>  <template_shape_score>  (1) 
0.273

>  <template_color_score>  (1) 
0.020

>  <template_combo_score>  (1) 
0.147

$$$$
5FF6_color_pose
     RDKit          3D

102103  0  0  0  0  0  0  0  0999 V2000
  -15.3026   43.8970   14.4537 C   0  0  0  0  0  0  0  0  0  0  0  0
  -15.7320   43.5768   15.8810 C   0  0  0  0  0  0  0  0  0  0  0  0
  -16.0980   44.7628   16.7071 C   0  0  0  0  0  0  0  0  0  0  0  0
  -14.9538   42.5046   16.5195 C   0  0  0  0  0  0  0  0  0  0  0  0
  -13.4384   42.7035   16.6268 C   0  0  2  0  0  0  0  0  0  0  0  0
  -13.0047   41.4890   17.2862 N   0  0  0  0  0  0  0  0  0  0  0  0
  -12.6956   40.2620   16.5704 C   0  0  0  0  0  0  0  0  0  0  0  0
  -12.9747   40.2896   15.3761 O   0  0  0  0  0  0  0  0  0  0  0  0
  -12.1238   39.1640   17.3483 C   0  0  2  0  0  0  0  0  0  0  0  0
  -10.5687   39.1436   17.1507 C   0  0  0  0  0  0  0  0  0  0  0  0
   -9.8763   40.3428   17.5551 C   0  0  0  0  0  0  0  0  0  0  0  0
  -10.3695   41.3818   18.0090 O   0  0  0  0  0  0  0  0  0  0  0  0
   -8.4674   40.3453   17.4242 O   0  0  0  0  0  0  0  0  0  0  0  0
  -12.5097   37.8063   16.9226 N   0  0  0  0  0  0  0  0  0  0  0  0
  -12.9830   36.9477   17.9446 C   0  0  0  0  0  0  0  0  0  0  0  0
  -13.2138   37.4837   19.0469 O   0  0  0  0  0  0  0  0  0  0  0  0
  -13.2291   35.4935   17.8427 C   0  0  2  0  0  0  0  0  0  0  0  0
  -14.0652   34.9597   16.7769 C   0  0  0  0  0  0  0  0  0  0  0  0
  -14.1305   33.4484   16.9305 C   0  0  0  0  0  0  0  0  0  0  0  0
  -13.1561   32.6728   16.3526 C   0  0  0  0  0  0  0  0  0  0  0  0
  -13.1338   31.2823   16.4773 C   0  0  0  0  0  0  0  0  0  0  0  0
  -14.1566   30.7251   17.2209 C   0  0  0  0  0  0  0  0  0  0  0  0
  -15.1331   31.4725   17.8013 C   0  0  0  0  0  0  0  0  0  0  0  0
  -15.1684   32.8737   17.6842 C   0  0  0  0  0  0  0  0  0  0  0  0
  -13.5633   34.9767   19.1987 N   0  0  0  0  0  0  0  0  0  0  0  0
  -12.5533   35.1022   20.1817 C   0  0  0  0  0  0  0  0  0  0  0  0
  -11.5127   35.6988   19.7845 O   0  0  0  0  0  0  0  0  0  0  0  0
  -12.5535   34.6433   21.5749 C   0  0  2  0  0  0  0  0  0  0  0  0
  -13.5750   35.1552   22.5181 C   0  0  0  0  0  0  0  0  0  0  0  0
  -14.9815   34.8478   22.1272 C   0  0  0  0  0  0  0  0  0  0  0  0
  -15.1898   33.4114   21.9815 C   0  0  0  0  0  0  0  0  0  0  0  0
  -16.4636   32.9345   21.4737 N   0  0  0  0  0  0  0  0  0  0  0  0
  -14.3768   32.4976   22.2499 O   0  0  0  0  0  0  0  0  0  0  0  0
  -11.2119   35.1352   22.0522 N   0  0  0  0  0  0  0  0  0  0  0  0
  -10.0226   34.4063   21.7961 C   0  0  0  0  0  0  0  0  0  0  0  0
  -10.1353   33.4059   21.0846 O   0  0  0  0  0  0  0  0  0  0  0  0
   -8.7199   34.8833   22.3854 C   0  0  1  0  0  0  0  0  0  0  0  0
   -8.8619   35.7528   23.4894 N   0  0  0  0  0  0  0  0  0  0  0  0
   -7.8856   33.6526   22.5681 C   0  0  0  0  0  0  0  0  0  0  0  0
   -7.2478   33.0237   20.9754 S   0  0  0  0  0  0  0  0  0  0  0  0
   -5.6963   34.2221   20.2617 S   0  0  0  0  0  0  0  0  0  0  0  0
   -6.1035   35.5677   19.2157 C   0  0  0  0  0  0  0  0  0  0  0  0
   -6.5398   35.1644   17.7972 C   0  0  1  0  0  0  0  0  0  0  0  0
   -7.7770   34.4610   17.6992 C   0  0  0  0  0  0  0  0  0  0  0  0
   -8.7896   34.9843   17.1430 O   0  0  0  0  0  0  0  0  0  0  0  0
   -7.9166   33.1839   18.2117 O   0  0  0  0  0  0  0  0  0  0  0  0
   -6.3690   36.3507   16.9287 N   0  0  0  0  0  0  0  0  0  0  0  0
   -5.1821   36.5296   16.1582 C   0  0  0  0  0  0  0  0  0  0  0  0
   -4.3840   35.5655   16.2302 O   0  0  0  0  0  0  0  0  0  0  0  0
   -4.8110   37.6758   15.3317 C   0  0  2  0  0  0  0  0  0  0  0  0
   -3.6848   38.4659   16.0832 C   0  0  0  0  0  0  0  0  0  0  0  0
   -2.4728   37.6346   16.2985 C   0  0  0  0  0  0  0  0  0  0  0  0
   -1.8698   37.1343   14.9976 C   0  0  0  0  0  0  0  0  0  0  0  0
   -0.6313   36.3241   15.3563 C   0  0  0  0  0  0  0  0  0  0  0  0
   -0.9152   35.1971   16.1945 N   0  0  0  0  0  0  0  0  0  0  0  0
   -5.8672   38.6533   15.1573 N   0  0  0  0  0  0  0  0  0  0  0  0
   -5.7116   39.7809   14.2642 C   0  0  0  0  0  0  0  0  0  0  0  0
   -4.6210   39.8643   13.7035 O   0  0  0  0  0  0  0  0  0  0  0  0
   -6.8077   40.7820   14.0551 C   0  0  2  0  0  0  0  0  0  0  0  0
   -7.5612   40.3013   12.8391 C   0  0  0  0  0  0  0  0  0  0  0  0
   -8.7053   41.1610   12.4226 C   0  0  0  0  0  0  0  0  0  0  0  0
   -9.3473   40.5579   11.2028 C   0  0  0  0  0  0  0  0  0  0  0  0
  -10.3967   41.2040   10.5040 N   0  0  0  0  0  0  0  0  0  0  0  0
   -8.9742   39.4357   10.7446 O   0  0  0  0  0  0  0  0  0  0  0  0
   -6.2141   42.1108   13.7828 N   0  0  0  0  0  0  0  0  0  0  0  0
   -6.3455   43.0442   14.8354 C   0  0  0  0  0  0  0  0  0  0  0  0
   -7.0217   42.6266   15.8241 O   0  0  0  0  0  0  0  0  0  0  0  0
   -5.8296   44.4060   14.9527 C   0  0  2  0  0  0  0  0  0  0  0  0
   -4.3144   44.4984   15.0701 C   0  0  0  0  0  0  0  0  0  0  0  0
   -3.5890   43.9417   13.8917 C   0  0  0  0  0  0  0  0  0  0  0  0
   -3.9839   44.6617   12.6141 C   0  0  0  0  0  0  0  0  0  0  0  0
   -3.6831   46.0846   12.7093 N   0  0  0  0  0  0  0  0  0  0  0  0
   -3.9983   46.8784   11.5691 C   0  0  0  0  0  0  0  0  0  0  0  0
   -3.7842   48.2810   11.4981 N   0  0  0  0  0  0  0  0  0  0  0  0
   -4.5303   46.3349   10.4892 N   0  0  0  0  0  0  0  0  0  0  0  0
   -6.4018   45.0229   16.1887 N   0  0  0  0  0  0  0  0  0  0  0  0
   -6.5482   46.4274   16.3314 C   0  0  0  0  0  0  0  0  0  0  0  0
   -6.1165   47.1110   15.3825 O   0  0  0  0  0  0  0  0  0  0  0  0
   -7.1544   47.0829   17.5153 C   0  0  2  0  0  0  0  0  0  0  0  0
   -5.9610   47.6738   18.2725 C   0  0  0  0  0  0  0  0  0  0  0  0
   -6.2282   48.4209   19.4943 C   0  0  0  0  0  0  0  0  0  0  0  0
   -7.0709   49.6843   19.3816 C   0  0  0  0  0  0  0  0  0  0  0  0
   -7.1666   50.1481   20.7837 N   0  0  0  0  0  0  0  0  0  0  0  0
   -7.8350   51.3599   21.1302 C   0  0  0  0  0  0  0  0  0  0  0  0
   -7.8779   51.7112   22.5163 N   0  0  0  0  0  0  0  0  0  0  0  0
   -8.3601   52.0573   20.2064 N   0  0  0  0  0  0  0  0  0  0  0  0
   -7.8884   46.1369   18.3138 N   0  0  0  0  0  0  0  0  0  0  0  0
   -7.4805   45.4375   19.4627 C   0  0  0  0  0  0  0  0  0  0  0  0
   -6.3072   45.5066   19.8048 O   0  0  0  0  0  0  0  0  0  0  0  0
   -8.4047   44.6001   20.2987 C   0  0  2  0  0  0  0  0  0  0  0  0
   -7.8059   43.3802   20.8572 C   0  0  1  0  0  0  0  0  0  0  0  0
   -7.6302   42.2087   19.9680 C   0  0  0  0  0  0  0  0  0  0  0  0
   -6.5688   43.7389   21.4508 O   0  0  0  0  0  0  0  0  0  0  0  0
   -9.6845   44.4760   19.6393 N   0  0  0  0  0  0  0  0  0  0  0  0
  -10.8064   45.3073   19.8960 C   0  0  0  0  0  0  0  0  0  0  0  0
  -10.5727   46.2500   20.6905 O   0  0  0  0  0  0  0  0  0  0  0  0
  -12.1593   45.1940   19.3510 C   0  0  2  0  0  0  0  0  0  0  0  0
  -13.1747   45.3515   20.5027 C   0  0  0  0  0  0  0  0  0  0  0  0
  -14.4713   45.4061   20.0272 O   0  0  0  0  0  0  0  0  0  0  0  0
  -12.4355   43.9894   18.6290 N   0  0  0  0  0  0  0  0  0  0  0  0
  -13.0754   43.9479   17.3245 C   0  0  0  0  0  0  0  0  0  0  0  0
  -13.2782   45.0968   16.8741 O   0  0  0  0  0  0  0  0  0  0  0  0
  1  2  1  0
  2  3  1  0
  2  4  1  0
  5  4  1  1
  5  6  1  0
  6  7  1  0
  7  8  2  0
  7  9  1  0
  9 10  1  6
 10 11  1  0
 11 12  2  0
 11 13  1  0
  9 14  1  0
 14 15  1  0
 15 16  2  0
 15 17  1  0
 17 18  1  6
 18 19  1  0
 19 20  2  0
 20 21  1  0
 21 22  2  0
 22 23  1  0
 23 24  2  0
 17 25  1  0
 25 26  1  0
 26 27  2  0
 26 28  1  0
 28 29  1  1
 29 30  1  0
 30 31  1  0
 31 32  1  0
 31 33  2  0
 28 34  1  0
 34 35  1  0
 35 36  2  0
 35 37  1  0
 37 38  1  1
 37 39  1  0
 39 40  1  0
 40 41  1  0
 41 42  1  0
 42 43  1  0
 43 44  1  1
 44 45  2  0
 44 46  1  0
 43 47  1  0
 47 48  1  0
 48 49  2  0
 48 50  1  0
 50 51  1  1
 51 52  1  0
 52 53  1  0
 53 54  1  0
 54 55  1  0
 50 56  1  0
 56 57  1  0
 57 58  2  0
 57 59  1  0
 59 60  1  6
 60 61  1  0
 61 62  1  0
 62 63  1  0
 62 64  2  0
 59 65  1  0
 65 66  1  0
 66 67  2  0
 66 68  1  0
 68 69  1  1
 69 70  1  0
 70 71  1  0
 71 72  1  0
 72 73  1  0
 73 74  1  0
 73 75  2  0
 68 76  1  0
 76 77  1  0
 77 78  2  0
 77 79  1  0
 79 80  1  1
 80 81  1  0
 81 82  1  0
 82 83  1  0
 83 84  1  0
 84 85  1  0
 84 86  2  0
 79 87  1  0
 87 88  1  0
 88 89  2  0
 88 90  1  0
 90 91  1  0
 91 92  1  6
 91 93  1  0
 90 94  1  6
 94 95  1  0
 95 96  2  0
 95 97  1  0
 97 98  1  1
 98 99  1  0
 97100  1  0
100101  1  0
101102  2  0
101  5  1  0
 24 19  1  0
M  CHG  6  13  -1  38   1  46  -1  55   1  75   1  86   1
M  END
>  <shape_align_shape_tanimoto>  (2) 
0.21461688559961908

>  <shape_align_color_tanimoto>  (2) 
0.03323510736432423

>  <metric>  (2) 
color

>  <metric_score>  (2) 
0.033

>  <template_pid>  (2) 
5FF6

>  <template_shape_score>  (2) 
0.215

>  <template_color_score>  (2) 
0.033

>  <template_combo_score>  (2) 
0.124

$$$$
5FF6_combo_pose
     RDKit          3D

102103  0  0  0  0  0  0  0  0999 V2000
  -11.2198   40.6095    9.4211 C   0  0  0  0  0  0  0  0  0  0  0  0
  -12.1300   39.6592   10.0920 C   0  0  0  0  0  0  0  0  0  0  0  0
  -11.3211   38.4525   10.5598 C   0  0  0  0  0  0  0  0  0  0  0  0
  -12.9171   40.2558   11.2133 C   0  0  0  0  0  0  0  0  0  0  0  0
  -12.2173   40.8068   12.3822 C   0  0  2  0  0  0  0  0  0  0  0  0
  -13.2937   41.3262   13.3288 N   0  0  0  0  0  0  0  0  0  0  0  0
  -12.9271   41.2754   14.6537 C   0  0  0  0  0  0  0  0  0  0  0  0
  -11.7148   40.8844   14.8218 O   0  0  0  0  0  0  0  0  0  0  0  0
  -13.5913   41.5652   15.9682 C   0  0  2  0  0  0  0  0  0  0  0  0
  -14.0264   42.9468   16.1819 C   0  0  0  0  0  0  0  0  0  0  0  0
  -14.6616   43.0242   17.5146 C   0  0  0  0  0  0  0  0  0  0  0  0
  -14.8466   42.3179   18.4419 O   0  0  0  0  0  0  0  0  0  0  0  0
  -15.2264   44.3983   17.6927 O   0  0  0  0  0  0  0  0  0  0  0  0
  -12.4552   41.1918   16.8854 N   0  0  0  0  0  0  0  0  0  0  0  0
  -12.2723   39.8199   17.1732 C   0  0  0  0  0  0  0  0  0  0  0  0
  -13.2335   39.0670   16.7758 O   0  0  0  0  0  0  0  0  0  0  0  0
  -11.1647   39.1703   17.8362 C   0  0  2  0  0  0  0  0  0  0  0  0
  -11.5151   38.1181   18.8197 C   0  0  0  0  0  0  0  0  0  0  0  0
  -12.3768   37.0187   18.4202 C   0  0  0  0  0  0  0  0  0  0  0  0
  -13.6901   37.0455   18.9695 C   0  0  0  0  0  0  0  0  0  0  0  0
  -14.6295   36.0353   18.7048 C   0  0  0  0  0  0  0  0  0  0  0  0
  -14.2514   34.9647   17.8625 C   0  0  0  0  0  0  0  0  0  0  0  0
  -12.9441   34.9206   17.3018 C   0  0  0  0  0  0  0  0  0  0  0  0
  -12.1745   35.9377   17.6453 C   0  0  0  0  0  0  0  0  0  0  0  0
  -10.2819   40.1522   18.4818 N   0  0  0  0  0  0  0  0  0  0  0  0
   -9.3454   40.9808   17.7957 C   0  0  0  0  0  0  0  0  0  0  0  0
   -9.3155   40.8487   16.5825 O   0  0  0  0  0  0  0  0  0  0  0  0
   -8.4917   41.9128   18.5975 C   0  0  2  0  0  0  0  0  0  0  0  0
   -7.9402   41.1529   19.8149 C   0  0  0  0  0  0  0  0  0  0  0  0
   -6.9925   41.9859   20.6693 C   0  0  0  0  0  0  0  0  0  0  0  0
   -6.6355   41.1351   21.9090 C   0  0  0  0  0  0  0  0  0  0  0  0
   -5.3272   41.1517   22.3900 N   0  0  0  0  0  0  0  0  0  0  0  0
   -7.6198   40.5082   22.3430 O   0  0  0  0  0  0  0  0  0  0  0  0
   -9.4220   42.8901   19.2186 N   0  0  0  0  0  0  0  0  0  0  0  0
   -8.9913   44.2408   19.4845 C   0  0  0  0  0  0  0  0  0  0  0  0
   -7.8685   44.4500   18.8353 O   0  0  0  0  0  0  0  0  0  0  0  0
   -9.5336   45.3055   20.2342 C   0  0  1  0  0  0  0  0  0  0  0  0
   -9.5292   46.5697   19.4750 N   0  0  0  0  0  0  0  0  0  0  0  0
  -10.7920   45.1684   20.9823 C   0  0  0  0  0  0  0  0  0  0  0  0
  -10.7631   44.1125   22.4495 S   0  0  0  0  0  0  0  0  0  0  0  0
  -10.5628   42.0826   22.0057 S   0  0  0  0  0  0  0  0  0  0  0  0
  -12.0941   41.1502   21.8064 C   0  0  0  0  0  0  0  0  0  0  0  0
  -12.4572   40.4816   23.1315 C   0  0  1  0  0  0  0  0  0  0  0  0
  -13.7763   39.8407   23.0124 C   0  0  0  0  0  0  0  0  0  0  0  0
  -14.5551   39.4487   23.8843 O   0  0  0  0  0  0  0  0  0  0  0  0
  -14.2429   39.6338   21.6715 O   0  0  0  0  0  0  0  0  0  0  0  0
  -11.4363   39.4435   23.3870 N   0  0  0  0  0  0  0  0  0  0  0  0
  -11.0811   38.9810   24.7133 C   0  0  0  0  0  0  0  0  0  0  0  0
  -11.7938   39.5275   25.5875 O   0  0  0  0  0  0  0  0  0  0  0  0
  -10.0810   38.0176   25.0455 C   0  0  2  0  0  0  0  0  0  0  0  0
   -9.6213   38.2605   26.4834 C   0  0  0  0  0  0  0  0  0  0  0  0
   -9.0572   39.6153   26.6733 C   0  0  0  0  0  0  0  0  0  0  0  0
   -7.7329   39.9192   26.0426 C   0  0  0  0  0  0  0  0  0  0  0  0
   -6.6457   39.0331   26.6196 C   0  0  0  0  0  0  0  0  0  0  0  0
   -5.3898   39.4140   26.0126 N   0  0  0  0  0  0  0  0  0  0  0  0
   -9.0494   37.7307   24.1087 N   0  0  0  0  0  0  0  0  0  0  0  0
   -8.1556   36.5414   24.2069 C   0  0  0  0  0  0  0  0  0  0  0  0
   -8.3208   35.9037   25.1976 O   0  0  0  0  0  0  0  0  0  0  0  0
   -7.1797   36.3109   23.0770 C   0  0  2  0  0  0  0  0  0  0  0  0
   -5.9386   37.2375   23.4352 C   0  0  0  0  0  0  0  0  0  0  0  0
   -4.9564   37.0114   22.3673 C   0  0  0  0  0  0  0  0  0  0  0  0
   -3.6678   37.8568   22.5586 C   0  0  0  0  0  0  0  0  0  0  0  0
   -2.6477   37.4633   21.6896 N   0  0  0  0  0  0  0  0  0  0  0  0
   -3.7419   38.6943   23.4164 O   0  0  0  0  0  0  0  0  0  0  0  0
   -7.6149   36.6361   21.7622 N   0  0  0  0  0  0  0  0  0  0  0  0
   -7.1644   35.8854   20.5810 C   0  0  0  0  0  0  0  0  0  0  0  0
   -6.2814   35.0543   20.7014 O   0  0  0  0  0  0  0  0  0  0  0  0
   -7.8539   36.2308   19.3012 C   0  0  2  0  0  0  0  0  0  0  0  0
   -8.7672   35.0231   19.0913 C   0  0  0  0  0  0  0  0  0  0  0  0
   -9.7428   34.7158   20.1701 C   0  0  0  0  0  0  0  0  0  0  0  0
  -10.4407   33.4491   19.6218 C   0  0  0  0  0  0  0  0  0  0  0  0
  -11.3990   32.8558   20.5006 N   0  0  0  0  0  0  0  0  0  0  0  0
  -12.0204   31.6603   19.8248 C   0  0  0  0  0  0  0  0  0  0  0  0
  -13.0096   30.9521   20.6131 N   0  0  0  0  0  0  0  0  0  0  0  0
  -11.6650   31.3462   18.6637 N   0  0  0  0  0  0  0  0  0  0  0  0
   -6.9958   36.0648   18.1055 N   0  0  0  0  0  0  0  0  0  0  0  0
   -6.5929   37.2760   17.3655 C   0  0  0  0  0  0  0  0  0  0  0  0
   -6.7778   38.2854   17.9344 O   0  0  0  0  0  0  0  0  0  0  0  0
   -6.0217   37.0007   16.0087 C   0  0  2  0  0  0  0  0  0  0  0  0
   -5.0140   35.9940   15.7913 C   0  0  0  0  0  0  0  0  0  0  0  0
   -3.6669   36.1112   16.3986 C   0  0  0  0  0  0  0  0  0  0  0  0
   -2.8659   34.8393   16.0449 C   0  0  0  0  0  0  0  0  0  0  0  0
   -2.7648   34.6834   14.5921 N   0  0  0  0  0  0  0  0  0  0  0  0
   -2.1615   33.5292   13.9760 C   0  0  0  0  0  0  0  0  0  0  0  0
   -2.2325   33.5662   12.5462 N   0  0  0  0  0  0  0  0  0  0  0  0
   -1.7012   32.6481   14.7295 N   0  0  0  0  0  0  0  0  0  0  0  0
   -5.6771   38.3109   15.3855 N   0  0  0  0  0  0  0  0  0  0  0  0
   -6.5891   39.0681   14.6257 C   0  0  0  0  0  0  0  0  0  0  0  0
   -7.6916   38.4683   14.3910 O   0  0  0  0  0  0  0  0  0  0  0  0
   -6.3090   40.4586   14.1340 C   0  0  2  0  0  0  0  0  0  0  0  0
   -6.0370   41.3512   15.3786 C   0  0  1  0  0  0  0  0  0  0  0  0
   -4.7240   41.0920   16.0351 C   0  0  0  0  0  0  0  0  0  0  0  0
   -5.9202   42.6491   14.8134 O   0  0  0  0  0  0  0  0  0  0  0  0
   -7.5097   41.0237   13.5111 N   0  0  0  0  0  0  0  0  0  0  0  0
   -7.5327   42.0072   12.4820 C   0  0  0  0  0  0  0  0  0  0  0  0
   -6.4353   42.4282   12.0875 O   0  0  0  0  0  0  0  0  0  0  0  0
   -8.8100   42.5288   11.9037 C   0  0  2  0  0  0  0  0  0  0  0  0
   -9.1177   43.8163   12.7803 C   0  0  0  0  0  0  0  0  0  0  0  0
   -9.2570   43.3801   14.0592 O   0  0  0  0  0  0  0  0  0  0  0  0
   -9.8930   41.6307   12.1458 N   0  0  0  0  0  0  0  0  0  0  0  0
  -11.2905   41.9779   12.1687 C   0  0  0  0  0  0  0  0  0  0  0  0
  -11.6014   43.1235   12.0273 O   0  0  0  0  0  0  0  0  0  0  0  0
  1  2  1  0
  2  3  1  0
  2  4  1  0
  5  4  1  6
  5  6  1  0
  6  7  1  0
  7  8  2  0
  7  9  1  0
  9 10  1  6
 10 11  1  0
 11 12  2  0
 11 13  1  0
  9 14  1  0
 14 15  1  0
 15 16  2  0
 15 17  1  0
 17 18  1  1
 18 19  1  0
 19 20  2  0
 20 21  1  0
 21 22  2  0
 22 23  1  0
 23 24  2  0
 17 25  1  0
 25 26  1  0
 26 27  2  0
 26 28  1  0
 28 29  1  1
 29 30  1  0
 30 31  1  0
 31 32  1  0
 31 33  2  0
 28 34  1  0
 34 35  1  0
 35 36  2  0
 35 37  1  0
 37 38  1  6
 37 39  1  0
 39 40  1  0
 40 41  1  0
 41 42  1  0
 42 43  1  0
 43 44  1  6
 44 45  2  0
 44 46  1  0
 43 47  1  0
 47 48  1  0
 48 49  2  0
 48 50  1  0
 50 51  1  1
 51 52  1  0
 52 53  1  0
 53 54  1  0
 54 55  1  0
 50 56  1  0
 56 57  1  0
 57 58  2  0
 57 59  1  0
 59 60  1  1
 60 61  1  0
 61 62  1  0
 62 63  1  0
 62 64  2  0
 59 65  1  0
 65 66  1  0
 66 67  2  0
 66 68  1  0
 68 69  1  6
 69 70  1  0
 70 71  1  0
 71 72  1  0
 72 73  1  0
 73 74  1  0
 73 75  2  0
 68 76  1  0
 76 77  1  0
 77 78  2  0
 77 79  1  0
 79 80  1  1
 80 81  1  0
 81 82  1  0
 82 83  1  0
 83 84  1  0
 84 85  1  0
 84 86  2  0
 79 87  1  0
 87 88  1  0
 88 89  2  0
 88 90  1  0
 90 91  1  0
 91 92  1  6
 91 93  1  0
 90 94  1  1
 94 95  1  0
 95 96  2  0
 95 97  1  0
 97 98  1  1
 98 99  1  0
 97100  1  0
100101  1  0
101102  2  0
101  5  1  0
 24 19  1  0
M  CHG  6  13  -1  38   1  46  -1  55   1  75   1  86   1
M  END
>  <shape_align_shape_tanimoto>  (3) 
0.27332094503913196

>  <shape_align_color_tanimoto>  (3) 
0.020353549070705891

>  <metric>  (3) 
combo

>  <metric_score>  (3) 
0.147

>  <template_pid>  (3) 
5FF6

>  <template_shape_score>  (3) 
0.273

>  <template_color_score>  (3) 
0.020

>  <template_combo_score>  (3) 
0.147

$$$$
