6UVY_shape_pose
     RDKit          3D

 21 24  0  0  0  0  0  0  0  0999 V2000
   28.6762   45.9584   81.7695 C   0  0  0  0  0  0  0  0  0  0  0  0
   27.9060   46.8862   80.8694 C   0  0  2  0  0  0  0  0  0  0  0  0
   26.4700   46.4528   80.5352 C   0  0  0  0  0  0  0  0  0  0  0  0
   27.5428   46.4036   79.5169 C   0  0  1  0  0  0  0  0  0  0  0  0
   27.5108   47.4451   78.4450 C   0  0  0  0  0  0  0  0  0  0  0  0
   28.8107   48.0976   78.2717 N   0  0  0  0  0  0  0  0  0  0  0  0
   29.0089   49.1143   77.3119 C   0  0  0  0  0  0  0  0  0  0  0  0
   28.0100   49.4489   76.5944 O   0  0  0  0  0  0  0  0  0  0  0  0
   30.3429   49.7711   77.1471 C   0  0  2  0  0  0  0  0  0  0  0  0
   30.3838   51.2438   76.8374 C   0  0  0  0  0  0  0  0  0  0  0  0
   30.6567   50.3136   75.7445 C   0  0  1  0  0  0  0  0  0  0  0  0
   32.0317   49.9498   75.2546 C   0  0  2  0  0  0  0  0  0  0  0  0
   32.1334   48.4374   75.2061 C   0  0  0  0  0  0  0  0  0  0  0  0
   32.7129   48.0385   76.3937 O   0  0  0  0  0  0  0  0  0  0  0  0
   33.5414   49.0534   76.8262 C   0  0  0  0  0  0  0  0  0  0  0  0
   33.1573   50.3290   76.1154 C   0  0  1  0  0  0  0  0  0  0  0  0
   34.4186   50.7891   75.3841 C   0  0  0  0  0  0  0  0  0  0  0  0
   33.9423   52.3156   74.4754 S   0  0  0  0  0  0  0  0  0  0  0  0
   32.5576   51.6828   73.4888 C   0  0  0  0  0  0  0  0  0  0  0  0
   32.0365   52.3321   72.5396 N   0  0  0  0  0  0  0  0  0  0  0  0
   32.0909   50.3780   73.8665 N   0  0  0  0  0  0  0  0  0  0  0  0
  2  1  1  1
  2  3  1  0
  3  4  1  0
  4  5  1  6
  5  6  1  0
  6  7  1  0
  7  8  2  0
  9  7  1  6
  9 10  1  0
 11 10  1  1
 11 12  1  0
 12 13  1  6
 13 14  1  0
 14 15  1  0
 16 15  1  6
 16 17  1  0
 17 18  1  0
 18 19  1  0
 19 20  2  0
 19 21  1  0
  4  2  1  0
 11  9  1  0
 16 12  1  0
 21 12  1  0
M  CHG  1  20   1
M  END
>  <shape_align_shape_tanimoto>  (1) 
0.67013488520760756

>  <shape_align_color_tanimoto>  (1) 
0.1024448444673285

>  <metric>  (1) 
shape

>  <metric_score>  (1) 
0.670

>  <template_pid>  (1) 
6UVY

>  <template_shape_score>  (1) 
0.670

>  <template_color_score>  (1) 
0.102

>  <template_combo_score>  (1) 
0.386

$$$$
6UVY_color_pose
     RDKit          3D

 21 24  0  0  0  0  0  0  0  0999 V2000
   27.9051   44.5923   80.2680 C   0  0  0  0  0  0  0  0  0  0  0  0
   28.2993   45.9082   79.6689 C   0  0  2  0  0  0  0  0  0  0  0  0
   28.2076   47.0954   80.6465 C   0  0  0  0  0  0  0  0  0  0  0  0
   27.3204   47.0004   79.4904 C   0  0  1  0  0  0  0  0  0  0  0  0
   27.3878   47.8984   78.2860 C   0  0  0  0  0  0  0  0  0  0  0  0
   28.6346   48.5866   78.2217 N   0  0  0  0  0  0  0  0  0  0  0  0
   28.8492   49.4824   77.1281 C   0  0  0  0  0  0  0  0  0  0  0  0
   27.9159   49.6205   76.2669 O   0  0  0  0  0  0  0  0  0  0  0  0
   30.1187   50.2403   76.9830 C   0  0  2  0  0  0  0  0  0  0  0  0
   30.1856   51.5469   76.3062 C   0  0  0  0  0  0  0  0  0  0  0  0
   30.6249   50.4045   75.5309 C   0  0  1  0  0  0  0  0  0  0  0  0
   32.0652   50.0080   75.2810 C   0  0  2  0  0  0  0  0  0  0  0  0
   32.1244   48.5222   75.6652 C   0  0  0  0  0  0  0  0  0  0  0  0
   32.5560   48.4795   76.9696 O   0  0  0  0  0  0  0  0  0  0  0  0
   33.3270   49.5969   77.2157 C   0  0  0  0  0  0  0  0  0  0  0  0
   33.0606   50.6157   76.1256 C   0  0  1  0  0  0  0  0  0  0  0  0
   34.3857   50.9819   75.5684 C   0  0  0  0  0  0  0  0  0  0  0  0
   34.3338   51.8399   73.9892 S   0  0  0  0  0  0  0  0  0  0  0  0
   32.9882   50.9933   73.1443 C   0  0  0  0  0  0  0  0  0  0  0  0
   32.7263   51.2693   71.9260 N   0  0  0  0  0  0  0  0  0  0  0  0
   32.2470   50.0348   73.8560 N   0  0  0  0  0  0  0  0  0  0  0  0
  2  1  1  1
  2  3  1  0
  3  4  1  0
  4  5  1  6
  5  6  1  0
  6  7  1  0
  7  8  2  0
  9  7  1  6
  9 10  1  0
 11 10  1  1
 11 12  1  0
 12 13  1  1
 13 14  1  0
 14 15  1  0
 16 15  1  1
 16 17  1  0
 17 18  1  0
 18 19  1  0
 19 20  2  0
 19 21  1  0
  4  2  1  0
 11  9  1  0
 16 12  1  0
 21 12  1  0
M  CHG  1  20   1
M  END
>  <shape_align_shape_tanimoto>  (2) 
0.61965129494186411

>  <shape_align_color_tanimoto>  (2) 
0.14459975970875072

>  <metric>  (2) 
color

>  <metric_score>  (2) 
0.145

>  <template_pid>  (2) 
6UVY

>  <template_shape_score>  (2) 
0.620

>  <template_color_score>  (2) 
0.145

>  <template_combo_score>  (2) 
0.382

$$$$
6UVY_combo_pose
     RDKit          3D

 21 24  0  0  0  0  0  0  0  0999 V2000
   28.6762   45.9584   81.7695 C   0  0  0  0  0  0  0  0  0  0  0  0
   27.9060   46.8862   80.8694 C   0  0  2  0  0  0  0  0  0  0  0  0
   26.4700   46.4528   80.5352 C   0  0  0  0  0  0  0  0  0  0  0  0
   27.5428   46.4036   79.5169 C   0  0  1  0  0  0  0  0  0  0  0  0
   27.5108   47.4451   78.4450 C   0  0  0  0  0  0  0  0  0  0  0  0
   28.8107   48.0976   78.2717 N   0  0  0  0  0  0  0  0  0  0  0  0
   29.0089   49.1143   77.3119 C   0  0  0  0  0  0  0  0  0  0  0  0
   28.0100   49.4489   76.5944 O   0  0  0  0  0  0  0  0  0  0  0  0
   30.3429   49.7711   77.1471 C   0  0  2  0  0  0  0  0  0  0  0  0
   30.3838   51.2438   76.8374 C   0  0  0  0  0  0  0  0  0  0  0  0
   30.6567   50.3136   75.7445 C   0  0  1  0  0  0  0  0  0  0  0  0
   32.0317   49.9498   75.2546 C   0  0  2  0  0  0  0  0  0  0  0  0
   32.1334   48.4374   75.2061 C   0  0  0  0  0  0  0  0  0  0  0  0
   32.7129   48.0385   76.3937 O   0  0  0  0  0  0  0  0  0  0  0  0
   33.5414   49.0534   76.8262 C   0  0  0  0  0  0  0  0  0  0  0  0
   33.1573   50.3290   76.1154 C   0  0  1  0  0  0  0  0  0  0  0  0
   34.4186   50.7891   75.3841 C   0  0  0  0  0  0  0  0  0  0  0  0
   33.9423   52.3156   74.4754 S   0  0  0  0  0  0  0  0  0  0  0  0
   32.5576   51.6828   73.4888 C   0  0  0  0  0  0  0  0  0  0  0  0
   32.0365   52.3321   72.5396 N   0  0  0  0  0  0  0  0  0  0  0  0
   32.0909   50.3780   73.8665 N   0  0  0  0  0  0  0  0  0  0  0  0
  2  1  1  1
  2  3  1  0
  3  4  1  0
  4  5  1  6
  5  6  1  0
  6  7  1  0
  7  8  2  0
  9  7  1  6
  9 10  1  0
 11 10  1  1
 11 12  1  0
 12 13  1  6
 13 14  1  0
 14 15  1  0
 16 15  1  6
 16 17  1  0
 17 18  1  0
 18 19  1  0
 19 20  2  0
 19 21  1  0
  4  2  1  0
 11  9  1  0
 16 12  1  0
 21 12  1  0
M  CHG  1  20   1
M  END
>  <shape_align_shape_tanimoto>  (3) 
0.67013488520760756

>  <shape_align_color_tanimoto>  (3) 
0.1024448444673285

>  <metric>  (3) 
combo

>  <metric_score>  (3) 
0.386

>  <template_pid>  (3) 
6UVY

>  <template_shape_score>  (3) 
0.670

>  <template_color_score>  (3) 
0.102

>  <template_combo_score>  (3) 
0.386

$$$$
