4QP2_shape_pose
     RDKit          3D

 11 12  0  0  0  0  0  0  0  0999 V2000
   14.6244   -2.6474   29.9149 N   0  0  0  0  0  0  0  0  0  0  0  0
   13.5664   -1.7090   30.0829 C   0  0  0  0  0  0  0  0  0  0  0  0
   13.1741   -0.8298   29.1399 N   0  0  0  0  0  0  0  0  0  0  0  0
   12.1532   -0.0830   29.6025 C   0  0  0  0  0  0  0  0  0  0  0  0
   11.4221    0.9337   29.0217 C   0  0  0  0  0  0  0  0  0  0  0  0
   10.4000    1.5499   29.7335 C   0  0  0  0  0  0  0  0  0  0  0  0
    9.4692    2.8394   29.0035 Cl  0  0  0  0  0  0  0  0  0  0  0  0
   10.1778    1.0896   31.0126 C   0  0  0  0  0  0  0  0  0  0  0  0
   10.9081    0.0735   31.5936 C   0  0  0  0  0  0  0  0  0  0  0  0
   11.9224   -0.5369   30.8853 C   0  0  0  0  0  0  0  0  0  0  0  0
   12.7886   -1.5011   31.1185 O   0  0  0  0  0  0  0  0  0  0  0  0
  1  2  1  0
  2  3  2  0
  3  4  1  0
  4  5  2  0
  5  6  1  0
  6  7  1  0
  6  8  2  0
  8  9  1  0
  9 10  2  0
 10 11  1  0
 11  2  1  0
 10  4  1  0
M  END
>  <shape_align_shape_tanimoto>  (1) 
0.46881344641472916

>  <shape_align_color_tanimoto>  (1) 
0.020004168386274813

>  <metric>  (1) 
shape

>  <metric_score>  (1) 
0.469

>  <template_pid>  (1) 
4QP2

>  <template_shape_score>  (1) 
0.469

>  <template_color_score>  (1) 
0.020

>  <template_combo_score>  (1) 
0.244

$$$$
4QP2_color_pose
     RDKit          3D

 11 12  0  0  0  0  0  0  0  0999 V2000
    9.7797    2.7517   27.9774 N   0  0  0  0  0  0  0  0  0  0  0  0
   10.1540    1.9770   29.1097 C   0  0  0  0  0  0  0  0  0  0  0  0
    9.5652    2.0800   30.3038 N   0  0  0  0  0  0  0  0  0  0  0  0
   10.1552    1.2178   31.1313 C   0  0  0  0  0  0  0  0  0  0  0  0
    9.9113    0.9456   32.4654 C   0  0  0  0  0  0  0  0  0  0  0  0
   10.6866   -0.0122   33.0857 C   0  0  0  0  0  0  0  0  0  0  0  0
   10.4101   -0.3860   34.7722 Cl  0  0  0  0  0  0  0  0  0  0  0  0
   11.6749   -0.6618   32.3529 C   0  0  0  0  0  0  0  0  0  0  0  0
   11.9025   -0.3729   31.0148 C   0  0  0  0  0  0  0  0  0  0  0  0
   11.1253    0.5834   30.4031 C   0  0  0  0  0  0  0  0  0  0  0  0
   11.0934    1.0704   29.1841 O   0  0  0  0  0  0  0  0  0  0  0  0
  1  2  1  0
  2  3  2  0
  3  4  1  0
  4  5  2  0
  5  6  1  0
  6  7  1  0
  6  8  2  0
  8  9  1  0
  9 10  2  0
 10 11  1  0
 11  2  1  0
 10  4  1  0
M  END
>  <shape_align_shape_tanimoto>  (2) 
0.45146759322596708

>  <shape_align_color_tanimoto>  (2) 
0.084226149999910044

>  <metric>  (2) 
color

>  <metric_score>  (2) 
0.084

>  <template_pid>  (2) 
4QP2

>  <template_shape_score>  (2) 
0.451

>  <template_color_score>  (2) 
0.084

>  <template_combo_score>  (2) 
0.268

$$$$
4QP2_combo_pose
     RDKit          3D

 11 12  0  0  0  0  0  0  0  0999 V2000
    9.7797    2.7517   27.9774 N   0  0  0  0  0  0  0  0  0  0  0  0
   10.1540    1.9770   29.1097 C   0  0  0  0  0  0  0  0  0  0  0  0
    9.5652    2.0800   30.3038 N   0  0  0  0  0  0  0  0  0  0  0  0
   10.1552    1.2178   31.1313 C   0  0  0  0  0  0  0  0  0  0  0  0
    9.9113    0.9456   32.4654 C   0  0  0  0  0  0  0  0  0  0  0  0
   10.6866   -0.0122   33.0857 C   0  0  0  0  0  0  0  0  0  0  0  0
   10.4101   -0.3860   34.7722 Cl  0  0  0  0  0  0  0  0  0  0  0  0
   11.6749   -0.6618   32.3529 C   0  0  0  0  0  0  0  0  0  0  0  0
   11.9025   -0.3729   31.0148 C   0  0  0  0  0  0  0  0  0  0  0  0
   11.1253    0.5834   30.4031 C   0  0  0  0  0  0  0  0  0  0  0  0
   11.0934    1.0704   29.1841 O   0  0  0  0  0  0  0  0  0  0  0  0
  1  2  1  0
  2  3  2  0
  3  4  1  0
  4  5  2  0
  5  6  1  0
  6  7  1  0
  6  8  2  0
  8  9  1  0
  9 10  2  0
 10 11  1  0
 11  2  1  0
 10  4  1  0
M  END
>  <shape_align_shape_tanimoto>  (3) 
0.45146759322596708

>  <shape_align_color_tanimoto>  (3) 
0.084226149999910044

>  <metric>  (3) 
combo

>  <metric_score>  (3) 
0.268

>  <template_pid>  (3) 
4QP2

>  <template_shape_score>  (3) 
0.451

>  <template_color_score>  (3) 
0.084

>  <template_combo_score>  (3) 
0.268

$$$$
