1HIY_shape_pose
     RDKit          3D

 27 29  0  0  0  0  0  0  0  0999 V2000
   -0.0582   15.3435  -36.0713 N   0  0  0  0  0  0  0  0  0  0  0  0
   -0.7927   16.5557  -35.8783 C   0  0  0  0  0  0  0  0  0  0  0  0
   -0.6040   17.6496  -36.6387 N   0  0  0  0  0  0  0  0  0  0  0  0
   -1.2968   18.7858  -36.4531 C   0  0  0  0  0  0  0  0  0  0  0  0
   -2.2398   18.9051  -35.4786 N   0  0  0  0  0  0  0  0  0  0  0  0
   -2.4474   17.8254  -34.7048 C   0  0  0  0  0  0  0  0  0  0  0  0
   -1.7399   16.6401  -34.8816 C   0  0  0  0  0  0  0  0  0  0  0  0
   -2.1587   15.7436  -33.9687 N   0  0  0  0  0  0  0  0  0  0  0  0
   -3.1105   16.3258  -33.2187 C   0  0  0  0  0  0  0  0  0  0  0  0
   -3.2787   17.5886  -33.6728 N   0  0  0  0  0  0  0  0  0  0  0  0
   -4.2508   18.5083  -33.0712 C   0  0  2  0  0  0  0  0  0  0  0  0
   -4.4316   18.1876  -31.7482 O   0  0  0  0  0  0  0  0  0  0  0  0
   -5.6395   18.7522  -31.3785 C   0  0  2  0  0  0  0  0  0  0  0  0
   -6.1343   18.1910  -30.0671 C   0  0  0  0  0  0  0  0  0  0  0  0
   -6.3379   16.8416  -30.0838 O   0  0  0  0  0  0  0  0  0  0  0  0
   -6.8851   16.1668  -28.6591 P   0  0  2  0  0  5  0  0  0  0  0  0
   -5.8295   15.2327  -28.1236 O   0  0  0  0  0  0  0  0  0  0  0  0
   -8.2287   15.1899  -29.0776 O   0  0  0  0  0  0  0  0  0  0  0  0
   -7.4452   17.2618  -27.5278 O   0  0  0  0  0  0  0  0  0  0  0  0
   -6.4422   17.4582  -26.2151 P   0  0  0  0  0  0  0  0  0  0  0  0
   -7.2967   17.3719  -24.9587 O   0  0  0  0  0  0  0  0  0  0  0  0
   -5.6861   18.9621  -26.1881 O   0  0  0  0  0  0  0  0  0  0  0  0
   -5.3072   16.1940  -26.0618 O   0  0  0  0  0  0  0  0  0  0  0  0
   -6.5536   18.4890  -32.5228 C   0  0  1  0  0  0  0  0  0  0  0  0
   -7.4652   19.5852  -32.7884 N   0  0  0  0  0  0  0  0  0  0  0  0
   -5.6091   18.2488  -33.6848 C   0  0  1  0  0  0  0  0  0  0  0  0
   -5.8901   19.0518  -34.7703 O   0  0  0  0  0  0  0  0  0  0  0  0
  1  2  1  0
  2  3  2  0
  3  4  1  0
  4  5  2  0
  5  6  1  0
  6  7  2  0
  7  8  1  0
  8  9  2  0
  9 10  1  0
 11 10  1  6
 11 12  1  0
 12 13  1  0
 13 14  1  1
 14 15  1  0
 15 16  1  0
 16 17  2  0
 16 18  1  6
 16 19  1  0
 19 20  1  0
 20 21  2  0
 20 22  1  0
 20 23  1  0
 13 24  1  0
 24 25  1  6
 24 26  1  0
 26 27  1  6
  7  2  1  0
 26 11  1  0
 10  6  1  0
M  CHG  1  25   1
M  END
>  <shape_align_shape_tanimoto>  (1) 
0.76946404162299598

>  <shape_align_color_tanimoto>  (1) 
0.1002399240929778

>  <metric>  (1) 
shape

>  <metric_score>  (1) 
0.769

>  <template_pid>  (1) 
1HIY

>  <template_shape_score>  (1) 
0.769

>  <template_color_score>  (1) 
0.100

>  <template_combo_score>  (1) 
0.435

$$$$
1HIY_color_pose
     RDKit          3D

 27 29  0  0  0  0  0  0  0  0999 V2000
   -7.1017   17.5386  -24.7331 N   0  0  0  0  0  0  0  0  0  0  0  0
   -6.8259   16.8943  -26.0036 C   0  0  0  0  0  0  0  0  0  0  0  0
   -6.7391   15.5224  -26.1076 N   0  0  0  0  0  0  0  0  0  0  0  0
   -6.4806   14.9160  -27.2970 C   0  0  0  0  0  0  0  0  0  0  0  0
   -6.2949   15.6533  -28.4481 N   0  0  0  0  0  0  0  0  0  0  0  0
   -6.3718   17.0297  -28.3968 C   0  0  0  0  0  0  0  0  0  0  0  0
   -6.6374   17.6525  -27.1742 C   0  0  0  0  0  0  0  0  0  0  0  0
   -6.6537   18.9882  -27.4275 N   0  0  0  0  0  0  0  0  0  0  0  0
   -6.4093   19.2127  -28.7538 C   0  0  0  0  0  0  0  0  0  0  0  0
   -6.2364   18.0072  -29.3474 N   0  0  0  0  0  0  0  0  0  0  0  0
   -5.9538   17.7516  -30.7505 C   0  0  2  0  0  0  0  0  0  0  0  0
   -4.5706   17.7582  -31.0379 O   0  0  0  0  0  0  0  0  0  0  0  0
   -4.6379   17.5168  -32.4495 C   0  0  2  0  0  0  0  0  0  0  0  0
   -3.2564   17.4958  -33.0765 C   0  0  0  0  0  0  0  0  0  0  0  0
   -3.3959   17.2537  -34.4572 O   0  0  0  0  0  0  0  0  0  0  0  0
   -1.9214   17.2035  -35.2855 P   0  0  2  0  0  5  0  0  0  0  0  0
   -1.6302   15.8089  -35.8639 O   0  0  0  0  0  0  0  0  0  0  0  0
   -0.6703   17.6827  -34.2146 O   0  0  0  0  0  0  0  0  0  0  0  0
   -1.9119   18.2781  -36.6322 O   0  0  0  0  0  0  0  0  0  0  0  0
   -0.6773   17.7263  -37.7035 P   0  0  0  0  0  0  0  0  0  0  0  0
    0.3750   18.8323  -37.9058 O   0  0  0  0  0  0  0  0  0  0  0  0
    0.1675   16.3789  -37.0510 O   0  0  0  0  0  0  0  0  0  0  0  0
   -1.3811   17.2520  -39.1851 O   0  0  0  0  0  0  0  0  0  0  0  0
   -5.4542   18.7421  -32.8741 C   0  0  1  0  0  0  0  0  0  0  0  0
   -6.1349   18.4801  -34.1235 N   0  0  0  0  0  0  0  0  0  0  0  0
   -6.4819   18.8027  -31.7095 C   0  0  1  0  0  0  0  0  0  0  0  0
   -7.7601   18.3508  -32.1509 O   0  0  0  0  0  0  0  0  0  0  0  0
  1  2  1  0
  2  3  2  0
  3  4  1  0
  4  5  2  0
  5  6  1  0
  6  7  2  0
  7  8  1  0
  8  9  2  0
  9 10  1  0
 11 10  1  1
 11 12  1  0
 12 13  1  0
 13 14  1  6
 14 15  1  0
 15 16  1  0
 16 17  2  0
 16 18  1  1
 16 19  1  0
 19 20  1  0
 20 21  2  0
 20 22  1  0
 20 23  1  0
 13 24  1  0
 24 25  1  6
 24 26  1  0
 26 27  1  6
  7  2  1  0
 26 11  1  0
 10  6  1  0
M  CHG  1  25   1
M  END
>  <shape_align_shape_tanimoto>  (2) 
0.55955115820022661

>  <shape_align_color_tanimoto>  (2) 
0.14263839043130591

>  <metric>  (2) 
color

>  <metric_score>  (2) 
0.143

>  <template_pid>  (2) 
1HIY

>  <template_shape_score>  (2) 
0.560

>  <template_color_score>  (2) 
0.143

>  <template_combo_score>  (2) 
0.351

$$$$
1HIY_combo_pose
     RDKit          3D

 27 29  0  0  0  0  0  0  0  0999 V2000
   -0.0582   15.3435  -36.0713 N   0  0  0  0  0  0  0  0  0  0  0  0
   -0.7927   16.5557  -35.8783 C   0  0  0  0  0  0  0  0  0  0  0  0
   -0.6040   17.6496  -36.6387 N   0  0  0  0  0  0  0  0  0  0  0  0
   -1.2968   18.7858  -36.4531 C   0  0  0  0  0  0  0  0  0  0  0  0
   -2.2398   18.9051  -35.4786 N   0  0  0  0  0  0  0  0  0  0  0  0
   -2.4474   17.8254  -34.7048 C   0  0  0  0  0  0  0  0  0  0  0  0
   -1.7399   16.6401  -34.8816 C   0  0  0  0  0  0  0  0  0  0  0  0
   -2.1587   15.7436  -33.9687 N   0  0  0  0  0  0  0  0  0  0  0  0
   -3.1105   16.3258  -33.2187 C   0  0  0  0  0  0  0  0  0  0  0  0
   -3.2787   17.5886  -33.6728 N   0  0  0  0  0  0  0  0  0  0  0  0
   -4.2508   18.5083  -33.0712 C   0  0  2  0  0  0  0  0  0  0  0  0
   -4.4316   18.1876  -31.7482 O   0  0  0  0  0  0  0  0  0  0  0  0
   -5.6395   18.7522  -31.3785 C   0  0  2  0  0  0  0  0  0  0  0  0
   -6.1343   18.1910  -30.0671 C   0  0  0  0  0  0  0  0  0  0  0  0
   -6.3379   16.8416  -30.0838 O   0  0  0  0  0  0  0  0  0  0  0  0
   -6.8851   16.1668  -28.6591 P   0  0  2  0  0  5  0  0  0  0  0  0
   -5.8295   15.2327  -28.1236 O   0  0  0  0  0  0  0  0  0  0  0  0
   -8.2287   15.1899  -29.0776 O   0  0  0  0  0  0  0  0  0  0  0  0
   -7.4452   17.2618  -27.5278 O   0  0  0  0  0  0  0  0  0  0  0  0
   -6.4422   17.4582  -26.2151 P   0  0  0  0  0  0  0  0  0  0  0  0
   -7.2967   17.3719  -24.9587 O   0  0  0  0  0  0  0  0  0  0  0  0
   -5.6861   18.9621  -26.1881 O   0  0  0  0  0  0  0  0  0  0  0  0
   -5.3072   16.1940  -26.0618 O   0  0  0  0  0  0  0  0  0  0  0  0
   -6.5536   18.4890  -32.5228 C   0  0  1  0  0  0  0  0  0  0  0  0
   -7.4652   19.5852  -32.7884 N   0  0  0  0  0  0  0  0  0  0  0  0
   -5.6091   18.2488  -33.6848 C   0  0  1  0  0  0  0  0  0  0  0  0
   -5.8901   19.0518  -34.7703 O   0  0  0  0  0  0  0  0  0  0  0  0
  1  2  1  0
  2  3  2  0
  3  4  1  0
  4  5  2  0
  5  6  1  0
  6  7  2  0
  7  8  1  0
  8  9  2  0
  9 10  1  0
 11 10  1  6
 11 12  1  0
 12 13  1  0
 13 14  1  1
 14 15  1  0
 15 16  1  0
 16 17  2  0
 16 18  1  6
 16 19  1  0
 19 20  1  0
 20 21  2  0
 20 22  1  0
 20 23  1  0
 13 24  1  0
 24 25  1  6
 24 26  1  0
 26 27  1  6
  7  2  1  0
 26 11  1  0
 10  6  1  0
M  CHG  1  25   1
M  END
>  <shape_align_shape_tanimoto>  (3) 
0.76946404162299598

>  <shape_align_color_tanimoto>  (3) 
0.1002399240929778

>  <metric>  (3) 
combo

>  <metric_score>  (3) 
0.435

>  <template_pid>  (3) 
1HIY

>  <template_shape_score>  (3) 
0.769

>  <template_color_score>  (3) 
0.100

>  <template_combo_score>  (3) 
0.435

$$$$
