3ODL_shape_pose
     RDKit          3D

 86 86  0  0  0  0  0  0  0  0999 V2000
    4.0886   32.0163   82.9754 C   0  0  0  0  0  0  0  0  0  0  0  0
    3.5165   30.8412   83.3945 C   0  0  0  0  0  0  0  0  0  0  0  0
    2.8839   30.9733   84.7087 C   0  0  0  0  0  0  0  0  0  0  0  0
    2.2703   30.0052   85.3340 C   0  0  0  0  0  0  0  0  0  0  0  0
    2.1051   28.6231   84.8062 C   0  0  0  0  0  0  0  0  0  0  0  0
    0.6457   28.2244   84.8052 C   0  0  1  0  0  0  0  0  0  0  0  0
    0.1249   28.2518   86.2358 C   0  0  0  0  0  0  0  0  0  0  0  0
   -0.2523   29.2158   84.0693 C   0  0  1  0  0  0  0  0  0  0  0  0
   -0.0127   30.4103   84.6936 O   0  0  0  0  0  0  0  0  0  0  0  0
   -0.1112   29.1579   82.6420 C   0  0  1  0  0  0  0  0  0  0  0  0
   -0.6530   27.7820   82.1209 C   0  0  0  0  0  0  0  0  0  0  0  0
    0.1054   26.8074   82.0754 O   0  0  0  0  0  0  0  0  0  0  0  0
   -1.9750   27.6126   81.7104 N   0  0  0  0  0  0  0  0  0  0  0  0
   -2.5194   26.3784   81.0987 C   0  0  1  0  0  0  0  0  0  0  0  0
   -3.1334   25.5051   82.2067 C   0  0  0  0  0  0  0  0  0  0  0  0
   -2.1376   25.0956   83.2536 C   0  0  0  0  0  0  0  0  0  0  0  0
   -3.5465   26.7233   80.1039 C   0  0  0  0  0  0  0  0  0  0  0  0
   -3.9638   27.8851   80.0431 O   0  0  0  0  0  0  0  0  0  0  0  0
   -4.1604   25.8747   79.1498 N   0  0  0  0  0  0  0  0  0  0  0  0
   -3.6823   24.5344   79.1116 C   0  0  0  0  0  0  0  0  0  0  0  0
   -5.2147   26.3462   78.2395 C   0  0  0  0  0  0  0  0  0  0  0  0
   -4.5266   26.8763   77.0410 C   0  0  0  0  0  0  0  0  0  0  0  0
   -3.3212   26.9091   76.8670 O   0  0  0  0  0  0  0  0  0  0  0  0
   -5.2601   27.4353   75.9000 N   0  0  0  0  0  0  0  0  0  0  0  0
   -6.6732   27.5008   76.1752 C   0  0  0  0  0  0  0  0  0  0  0  0
   -4.6076   27.9182   74.7339 C   0  0  1  0  0  0  0  0  0  0  0  0
   -4.7335   27.1701   73.4598 C   0  0  0  0  0  0  0  0  0  0  0  0
   -6.0371   26.9440   72.8195 C   0  0  0  0  0  0  0  0  0  0  0  0
   -5.7865   26.1947   71.4642 C   0  0  0  0  0  0  0  0  0  0  0  0
   -6.9144   25.9308   73.5681 C   0  0  0  0  0  0  0  0  0  0  0  0
   -4.8443   29.3734   74.4425 C   0  0  0  0  0  0  0  0  0  0  0  0
   -5.7320   30.0567   74.9696 O   0  0  0  0  0  0  0  0  0  0  0  0
   -4.0096   30.0247   73.5122 N   0  0  0  0  0  0  0  0  0  0  0  0
   -4.2106   31.4871   73.1428 C   0  0  1  0  0  0  0  0  0  0  0  0
   -3.0869   32.1535   73.8953 C   0  0  0  0  0  0  0  0  0  0  0  0
   -3.0166   33.6365   73.8085 C   0  0  0  0  0  0  0  0  0  0  0  0
   -3.1460   31.7912   75.3836 C   0  0  0  0  0  0  0  0  0  0  0  0
   -4.0927   31.4548   71.6822 C   0  0  0  0  0  0  0  0  0  0  0  0
   -3.8039   30.3029   71.2149 O   0  0  0  0  0  0  0  0  0  0  0  0
   -4.2234   32.3907   70.6474 N   0  0  0  0  0  0  0  0  0  0  0  0
   -4.6290   33.7083   70.9708 C   0  0  0  0  0  0  0  0  0  0  0  0
   -4.0244   31.9663   69.2430 C   0  0  1  0  0  0  0  0  0  0  0  0
   -5.1011   32.3268   68.3124 C   0  0  0  0  0  0  0  0  0  0  0  0
   -6.4331   31.7575   68.6209 C   0  0  0  0  0  0  0  0  0  0  0  0
   -6.4168   30.2496   68.6233 C   0  0  0  0  0  0  0  0  0  0  0  0
   -7.1493   32.2743   69.8180 C   0  0  0  0  0  0  0  0  0  0  0  0
   -2.6613   32.3837   68.7414 C   0  0  0  0  0  0  0  0  0  0  0  0
   -1.9956   31.6418   67.9811 O   0  0  0  0  0  0  0  0  0  0  0  0
   -2.0316   33.6034   69.0553 N   0  0  0  0  0  0  0  0  0  0  0  0
   -0.6120   33.8882   68.6963 C   0  0  1  0  0  0  0  0  0  0  0  0
   -0.6407   34.8613   67.5621 C   0  0  0  0  0  0  0  0  0  0  0  0
   -0.0856   34.4153   69.9639 C   0  0  0  0  0  0  0  0  0  0  0  0
   -0.9339   34.6379   70.8619 O   0  0  0  0  0  0  0  0  0  0  0  0
    1.2549   34.7049   70.3278 N   0  0  0  0  0  0  0  0  0  0  0  0
    1.4728   35.2313   71.6512 C   0  0  2  0  0  0  0  0  0  0  0  0
    2.3144   36.4736   71.4920 C   0  0  0  0  0  0  0  0  0  0  0  0
    2.0511   34.3575   72.6600 C   0  0  0  0  0  0  0  0  0  0  0  0
    2.0437   34.7814   73.8349 O   0  0  0  0  0  0  0  0  0  0  0  0
    2.6337   33.0865   72.5603 N   0  0  0  0  0  0  0  0  0  0  0  0
    2.6859   32.5078   71.2471 C   0  0  0  0  0  0  0  0  0  0  0  0
    3.1901   32.2899   73.6671 C   0  0  1  0  0  0  0  0  0  0  0  0
    4.3847   32.7446   74.3251 C   0  0  0  0  0  0  0  0  0  0  0  0
    4.5393   33.9894   75.0966 C   0  0  0  0  0  0  0  0  0  0  0  0
    3.6479   34.1277   76.3120 C   0  0  0  0  0  0  0  0  0  0  0  0
    5.9694   33.9096   75.7251 C   0  0  0  0  0  0  0  0  0  0  0  0
    1.9960   31.8648   74.3907 C   0  0  0  0  0  0  0  0  0  0  0  0
    0.9066   32.3572   74.0435 O   0  0  0  0  0  0  0  0  0  0  0  0
    1.8485   30.9534   75.4658 N   0  0  0  0  0  0  0  0  0  0  0  0
    3.0245   30.4597   76.0873 C   0  0  0  0  0  0  0  0  0  0  0  0
    0.5565   30.5456   76.0286 C   0  0  1  0  0  0  0  0  0  0  0  0
    0.0259   29.2619   75.5483 C   0  0  0  0  0  0  0  0  0  0  0  0
    0.6852   27.9627   75.6606 C   0  0  0  0  0  0  0  0  0  0  0  0
   -0.2507   26.8641   75.0674 C   0  0  0  0  0  0  0  0  0  0  0  0
    1.9643   27.7782   74.8870 C   0  0  0  0  0  0  0  0  0  0  0  0
    0.2880   31.0551   77.3484 C   0  0  0  0  0  0  0  0  0  0  0  0
    1.0438   31.9769   77.7729 O   0  0  0  0  0  0  0  0  0  0  0  0
   -0.6686   30.7332   78.3104 N   0  0  0  0  0  0  0  0  0  0  0  0
   -1.4644   29.5732   78.1751 C   0  0  0  0  0  0  0  0  0  0  0  0
   -0.8747   31.4874   79.5984 C   0  0  1  0  0  0  0  0  0  0  0  0
   -2.0902   32.2731   79.4960 C   0  0  0  0  0  0  0  0  0  0  0  0
   -3.4246   31.7064   79.2629 C   0  0  0  0  0  0  0  0  0  0  0  0
   -2.2569   33.3594   80.5772 C   0  0  0  0  0  0  0  0  0  0  0  0
   -0.4648   30.5924   80.6095 C   0  0  0  0  0  0  0  0  0  0  0  0
    0.6489   29.9608   80.3411 O   0  0  0  0  0  0  0  0  0  0  0  0
   -0.9160   30.1517   81.8644 N   0  0  0  0  0  0  0  0  0  0  0  0
   -2.0548   30.6722   82.4855 C   0  0  0  0  0  0  0  0  0  0  0  0
  1  2  2  0
  2  3  1  0
  3  4  2  0
  4  5  1  0
  5  6  1  0
  6  7  1  1
  6  8  1  0
  8  9  1  1
  8 10  1  0
 10 11  1  0
 11 12  2  0
 11 13  1  0
 13 14  1  0
 14 15  1  1
 15 16  1  0
 14 17  1  0
 17 18  2  0
 17 19  1  0
 19 20  1  0
 19 21  1  0
 21 22  1  0
 22 23  2  0
 22 24  1  0
 24 25  1  0
 24 26  1  0
 26 27  1  6
 27 28  1  0
 28 29  1  0
 28 30  1  0
 26 31  1  0
 31 32  2  0
 31 33  1  0
 33 34  1  0
 34 35  1  1
 35 36  1  0
 35 37  1  0
 34 38  1  0
 38 39  2  0
 38 40  1  0
 40 41  1  0
 40 42  1  0
 42 43  1  6
 43 44  1  0
 44 45  1  0
 44 46  1  0
 42 47  1  0
 47 48  2  0
 47 49  1  0
 49 50  1  0
 50 51  1  6
 50 52  1  0
 52 53  2  0
 52 54  1  0
 54 55  1  0
 55 56  1  6
 55 57  1  0
 57 58  2  0
 57 59  1  0
 59 60  1  0
 59 61  1  0
 61 62  1  1
 62 63  1  0
 63 64  1  0
 63 65  1  0
 61 66  1  0
 66 67  2  0
 66 68  1  0
 68 69  1  0
 68 70  1  0
 70 71  1  1
 71 72  1  0
 72 73  1  0
 72 74  1  0
 70 75  1  0
 75 76  2  0
 75 77  1  0
 77 78  1  0
 77 79  1  0
 79 80  1  1
 80 81  1  0
 80 82  1  0
 79 83  1  0
 83 84  2  0
 83 85  1  0
 85 86  1  0
 10 85  1  6
M  END
>  <shape_align_shape_tanimoto>  (1) 
0.30043568932349535

>  <shape_align_color_tanimoto>  (1) 
0.041054193902815575

>  <metric>  (1) 
shape

>  <metric_score>  (1) 
0.300

>  <template_pid>  (1) 
3ODL

>  <template_shape_score>  (1) 
0.300

>  <template_color_score>  (1) 
0.041

>  <template_combo_score>  (1) 
0.171

$$$$
3ODL_color_pose
     RDKit          3D

 86 86  0  0  0  0  0  0  0  0999 V2000
    4.2601   24.8576   80.2612 C   0  0  0  0  0  0  0  0  0  0  0  0
    3.2337   25.5153   80.7755 C   0  0  0  0  0  0  0  0  0  0  0  0
    2.3142   26.1611   79.8672 C   0  0  0  0  0  0  0  0  0  0  0  0
    1.2416   26.8541   80.2656 C   0  0  0  0  0  0  0  0  0  0  0  0
    0.8799   27.0360   81.6622 C   0  0  0  0  0  0  0  0  0  0  0  0
    0.8344   28.5316   82.0831 C   0  0  1  0  0  0  0  0  0  0  0  0
    2.2112   29.0305   81.8218 C   0  0  0  0  0  0  0  0  0  0  0  0
   -0.2883   29.1714   81.2423 C   0  0  1  0  0  0  0  0  0  0  0  0
   -1.3778   28.2820   81.6769 O   0  0  0  0  0  0  0  0  0  0  0  0
   -0.6940   30.4784   81.8393 C   0  0  1  0  0  0  0  0  0  0  0  0
   -0.1606   31.6564   81.1462 C   0  0  0  0  0  0  0  0  0  0  0  0
   -1.0716   32.3943   80.6142 O   0  0  0  0  0  0  0  0  0  0  0  0
    1.1219   32.1656   80.9339 N   0  0  0  0  0  0  0  0  0  0  0  0
    1.2807   33.4482   80.2410 C   0  0  1  0  0  0  0  0  0  0  0  0
    1.7208   34.4381   81.3624 C   0  0  0  0  0  0  0  0  0  0  0  0
    1.9082   35.8179   80.7932 C   0  0  0  0  0  0  0  0  0  0  0  0
    2.2186   33.5910   79.1820 C   0  0  0  0  0  0  0  0  0  0  0  0
    2.2794   34.7288   78.5871 O   0  0  0  0  0  0  0  0  0  0  0  0
    3.1661   32.7305   78.5787 N   0  0  0  0  0  0  0  0  0  0  0  0
    3.2547   31.3982   79.0018 C   0  0  0  0  0  0  0  0  0  0  0  0
    4.0455   33.2112   77.4925 C   0  0  0  0  0  0  0  0  0  0  0  0
    3.4488   32.9724   76.1574 C   0  0  0  0  0  0  0  0  0  0  0  0
    2.3925   32.3906   76.0357 O   0  0  0  0  0  0  0  0  0  0  0  0
    4.0520   33.3993   74.9375 N   0  0  0  0  0  0  0  0  0  0  0  0
    5.2909   34.0646   75.0751 C   0  0  0  0  0  0  0  0  0  0  0  0
    3.4292   33.1552   73.6115 C   0  0  1  0  0  0  0  0  0  0  0  0
    3.4865   31.6683   73.3640 C   0  0  0  0  0  0  0  0  0  0  0  0
    2.9474   31.1853   72.0550 C   0  0  0  0  0  0  0  0  0  0  0  0
    3.6780   31.7536   70.8574 C   0  0  0  0  0  0  0  0  0  0  0  0
    3.0596   29.6572   71.9507 C   0  0  0  0  0  0  0  0  0  0  0  0
    2.1228   33.7734   73.5268 C   0  0  0  0  0  0  0  0  0  0  0  0
    1.5735   34.2003   74.5618 O   0  0  0  0  0  0  0  0  0  0  0  0
    1.3205   33.9854   72.3348 N   0  0  0  0  0  0  0  0  0  0  0  0
    0.0046   34.5421   72.4918 C   0  0  1  0  0  0  0  0  0  0  0  0
    0.0538   36.0683   72.1426 C   0  0  0  0  0  0  0  0  0  0  0  0
   -1.3508   36.6033   72.3292 C   0  0  0  0  0  0  0  0  0  0  0  0
    0.9363   36.7602   73.1391 C   0  0  0  0  0  0  0  0  0  0  0  0
   -1.1247   33.9161   71.8786 C   0  0  0  0  0  0  0  0  0  0  0  0
   -2.2791   34.1528   72.3720 O   0  0  0  0  0  0  0  0  0  0  0  0
   -1.2658   33.0541   70.7701 N   0  0  0  0  0  0  0  0  0  0  0  0
   -0.1681   32.8875   69.8940 C   0  0  0  0  0  0  0  0  0  0  0  0
   -2.5451   32.3811   70.4501 C   0  0  1  0  0  0  0  0  0  0  0  0
   -3.0804   32.9052   69.1262 C   0  0  0  0  0  0  0  0  0  0  0  0
   -3.3469   34.3836   69.1173 C   0  0  0  0  0  0  0  0  0  0  0  0
   -3.8739   34.8287   67.7400 C   0  0  0  0  0  0  0  0  0  0  0  0
   -4.4701   34.7812   70.0780 C   0  0  0  0  0  0  0  0  0  0  0  0
   -2.3601   30.9248   70.3217 C   0  0  0  0  0  0  0  0  0  0  0  0
   -1.6700   30.4122   69.4270 O   0  0  0  0  0  0  0  0  0  0  0  0
   -2.9550   29.9605   71.2243 N   0  0  0  0  0  0  0  0  0  0  0  0
   -2.7726   28.5325   71.0208 C   0  0  1  0  0  0  0  0  0  0  0  0
   -1.5169   28.0717   71.7904 C   0  0  0  0  0  0  0  0  0  0  0  0
   -3.8745   27.6815   71.4833 C   0  0  0  0  0  0  0  0  0  0  0  0
   -3.8860   26.4445   71.3563 O   0  0  0  0  0  0  0  0  0  0  0  0
   -5.0621   28.1951   72.1354 N   0  0  0  0  0  0  0  0  0  0  0  0
   -6.1114   27.3596   72.6361 C   0  0  2  0  0  0  0  0  0  0  0  0
   -7.4760   27.7376   72.0934 C   0  0  0  0  0  0  0  0  0  0  0  0
   -6.2061   27.0999   74.0647 C   0  0  0  0  0  0  0  0  0  0  0  0
   -7.2190   26.5010   74.4860 O   0  0  0  0  0  0  0  0  0  0  0  0
   -5.3068   27.4158   75.1150 N   0  0  0  0  0  0  0  0  0  0  0  0
   -4.0945   28.0524   74.7741 C   0  0  0  0  0  0  0  0  0  0  0  0
   -5.6260   27.1029   76.5422 C   0  0  1  0  0  0  0  0  0  0  0  0
   -4.7975   26.0149   77.0687 C   0  0  0  0  0  0  0  0  0  0  0  0
   -3.3307   26.1075   77.1479 C   0  0  0  0  0  0  0  0  0  0  0  0
   -2.8631   24.7300   77.7251 C   0  0  0  0  0  0  0  0  0  0  0  0
   -2.7924   27.1909   78.0624 C   0  0  0  0  0  0  0  0  0  0  0  0
   -5.7363   28.3541   77.2926 C   0  0  0  0  0  0  0  0  0  0  0  0
   -5.3120   29.3969   76.7711 O   0  0  0  0  0  0  0  0  0  0  0  0
   -6.2848   28.5774   78.5839 N   0  0  0  0  0  0  0  0  0  0  0  0
   -6.8340   27.4412   79.2367 C   0  0  0  0  0  0  0  0  0  0  0  0
   -6.3027   29.9391   79.1851 C   0  0  1  0  0  0  0  0  0  0  0  0
   -7.7486   30.3692   79.3306 C   0  0  0  0  0  0  0  0  0  0  0  0
   -8.4844   30.4195   78.0236 C   0  0  0  0  0  0  0  0  0  0  0  0
   -9.8990   30.8551   78.3450 C   0  0  0  0  0  0  0  0  0  0  0  0
   -7.9108   31.3495   77.0218 C   0  0  0  0  0  0  0  0  0  0  0  0
   -5.5489   29.9799   80.4515 C   0  0  0  0  0  0  0  0  0  0  0  0
   -5.1623   28.9495   80.9628 O   0  0  0  0  0  0  0  0  0  0  0  0
   -5.2009   31.1592   81.1782 N   0  0  0  0  0  0  0  0  0  0  0  0
   -5.5998   32.3814   80.4800 C   0  0  0  0  0  0  0  0  0  0  0  0
   -4.5475   31.2736   82.4094 C   0  0  1  0  0  0  0  0  0  0  0  0
   -5.2453   30.8586   83.6621 C   0  0  0  0  0  0  0  0  0  0  0  0
   -5.6930   29.4712   83.8268 C   0  0  0  0  0  0  0  0  0  0  0  0
   -6.3838   31.8297   83.9907 C   0  0  0  0  0  0  0  0  0  0  0  0
   -3.1207   30.9778   82.3986 C   0  0  0  0  0  0  0  0  0  0  0  0
   -2.5747   30.9803   83.5677 O   0  0  0  0  0  0  0  0  0  0  0  0
   -2.1714   30.6883   81.4370 N   0  0  0  0  0  0  0  0  0  0  0  0
   -2.4340   30.5225   80.0760 C   0  0  0  0  0  0  0  0  0  0  0  0
  1  2  2  0
  2  3  1  0
  3  4  2  0
  4  5  1  0
  5  6  1  0
  6  7  1  6
  6  8  1  0
  8  9  1  1
  8 10  1  0
 10 11  1  0
 11 12  2  0
 11 13  1  0
 13 14  1  0
 14 15  1  1
 15 16  1  0
 14 17  1  0
 17 18  2  0
 17 19  1  0
 19 20  1  0
 19 21  1  0
 21 22  1  0
 22 23  2  0
 22 24  1  0
 24 25  1  0
 24 26  1  0
 26 27  1  1
 27 28  1  0
 28 29  1  0
 28 30  1  0
 26 31  1  0
 31 32  2  0
 31 33  1  0
 33 34  1  0
 34 35  1  6
 35 36  1  0
 35 37  1  0
 34 38  1  0
 38 39  2  0
 38 40  1  0
 40 41  1  0
 40 42  1  0
 42 43  1  6
 43 44  1  0
 44 45  1  0
 44 46  1  0
 42 47  1  0
 47 48  2  0
 47 49  1  0
 49 50  1  0
 50 51  1  1
 50 52  1  0
 52 53  2  0
 52 54  1  0
 54 55  1  0
 55 56  1  1
 55 57  1  0
 57 58  2  0
 57 59  1  0
 59 60  1  0
 59 61  1  0
 61 62  1  1
 62 63  1  0
 63 64  1  0
 63 65  1  0
 61 66  1  0
 66 67  2  0
 66 68  1  0
 68 69  1  0
 68 70  1  0
 70 71  1  1
 71 72  1  0
 72 73  1  0
 72 74  1  0
 70 75  1  0
 75 76  2  0
 75 77  1  0
 77 78  1  0
 77 79  1  0
 79 80  1  1
 80 81  1  0
 80 82  1  0
 79 83  1  0
 83 84  2  0
 83 85  1  0
 85 86  1  0
 10 85  1  6
M  END
>  <shape_align_shape_tanimoto>  (2) 
0.18582970204233121

>  <shape_align_color_tanimoto>  (2) 
0.086397782126223441

>  <metric>  (2) 
color

>  <metric_score>  (2) 
0.086

>  <template_pid>  (2) 
3ODL

>  <template_shape_score>  (2) 
0.186

>  <template_color_score>  (2) 
0.086

>  <template_combo_score>  (2) 
0.136

$$$$
3ODL_combo_pose
     RDKit          3D

 86 86  0  0  0  0  0  0  0  0999 V2000
    1.1235   23.9657   77.8673 C   0  0  0  0  0  0  0  0  0  0  0  0
    0.6940   25.2490   77.8931 C   0  0  0  0  0  0  0  0  0  0  0  0
    1.7259   26.2471   77.7731 C   0  0  0  0  0  0  0  0  0  0  0  0
    1.4678   27.5604   77.7818 C   0  0  0  0  0  0  0  0  0  0  0  0
    0.1468   28.1400   77.9081 C   0  0  0  0  0  0  0  0  0  0  0  0
   -0.2693   29.0383   76.7459 C   0  0  1  0  0  0  0  0  0  0  0  0
   -0.2395   28.2027   75.5841 C   0  0  0  0  0  0  0  0  0  0  0  0
   -1.4165   29.8472   77.2351 C   0  0  1  0  0  0  0  0  0  0  0  0
   -0.7967   30.5191   78.3114 O   0  0  0  0  0  0  0  0  0  0  0  0
   -2.0934   30.8059   76.4265 C   0  0  1  0  0  0  0  0  0  0  0  0
   -0.9171   31.5660   75.5672 C   0  0  0  0  0  0  0  0  0  0  0  0
   -1.0175   31.6726   74.3920 O   0  0  0  0  0  0  0  0  0  0  0  0
    0.1598   32.0618   76.2684 N   0  0  0  0  0  0  0  0  0  0  0  0
    1.3161   32.8298   75.7251 C   0  0  1  0  0  0  0  0  0  0  0  0
    2.2168   33.0983   76.8556 C   0  0  0  0  0  0  0  0  0  0  0  0
    3.4466   33.8411   76.5464 C   0  0  0  0  0  0  0  0  0  0  0  0
    1.9390   32.1030   74.6102 C   0  0  0  0  0  0  0  0  0  0  0  0
    1.6118   30.9245   74.4141 O   0  0  0  0  0  0  0  0  0  0  0  0
    2.8826   32.5621   73.6802 N   0  0  0  0  0  0  0  0  0  0  0  0
    3.0570   33.9805   73.5491 C   0  0  0  0  0  0  0  0  0  0  0  0
    3.5681   31.7477   72.6635 C   0  0  0  0  0  0  0  0  0  0  0  0
    4.5190   30.8444   73.3281 C   0  0  0  0  0  0  0  0  0  0  0  0
    4.4300   30.7135   74.5616 O   0  0  0  0  0  0  0  0  0  0  0  0
    5.5852   30.0965   72.7746 N   0  0  0  0  0  0  0  0  0  0  0  0
    6.1676   30.6787   71.5950 C   0  0  0  0  0  0  0  0  0  0  0  0
    6.0876   28.8654   73.3738 C   0  0  1  0  0  0  0  0  0  0  0  0
    6.5378   27.8870   72.3941 C   0  0  0  0  0  0  0  0  0  0  0  0
    7.0539   26.5994   72.9654 C   0  0  0  0  0  0  0  0  0  0  0  0
    6.0174   25.8375   73.7498 C   0  0  0  0  0  0  0  0  0  0  0  0
    7.6334   25.7881   71.8255 C   0  0  0  0  0  0  0  0  0  0  0  0
    7.1678   29.1503   74.4374 C   0  0  0  0  0  0  0  0  0  0  0  0
    8.3122   29.4670   74.1948 O   0  0  0  0  0  0  0  0  0  0  0  0
    6.7513   29.0280   75.7650 N   0  0  0  0  0  0  0  0  0  0  0  0
    7.5549   29.1502   77.0195 C   0  0  1  0  0  0  0  0  0  0  0  0
    7.3020   30.5080   77.5935 C   0  0  0  0  0  0  0  0  0  0  0  0
    7.9714   30.9370   78.8203 C   0  0  0  0  0  0  0  0  0  0  0  0
    7.5224   31.5662   76.5006 C   0  0  0  0  0  0  0  0  0  0  0  0
    7.0579   27.9887   77.7702 C   0  0  0  0  0  0  0  0  0  0  0  0
    6.1597   27.3355   77.0996 O   0  0  0  0  0  0  0  0  0  0  0  0
    7.2632   27.3794   78.9905 N   0  0  0  0  0  0  0  0  0  0  0  0
    8.1986   27.8908   79.9112 C   0  0  0  0  0  0  0  0  0  0  0  0
    6.5441   26.1215   79.3557 C   0  0  1  0  0  0  0  0  0  0  0  0
    7.4617   24.9801   79.5863 C   0  0  0  0  0  0  0  0  0  0  0  0
    6.8553   23.6639   79.9329 C   0  0  0  0  0  0  0  0  0  0  0  0
    7.9734   22.6073   80.1176 C   0  0  0  0  0  0  0  0  0  0  0  0
    6.0347   23.1248   78.7729 C   0  0  0  0  0  0  0  0  0  0  0  0
    5.4561   26.3274   80.3151 C   0  0  0  0  0  0  0  0  0  0  0  0
    4.8495   25.3389   80.7644 O   0  0  0  0  0  0  0  0  0  0  0  0
    4.9791   27.5818   80.8183 N   0  0  0  0  0  0  0  0  0  0  0  0
    3.8699   27.5809   81.7499 C   0  0  1  0  0  0  0  0  0  0  0  0
    4.3489   27.9881   83.1407 C   0  0  0  0  0  0  0  0  0  0  0  0
    2.8013   28.5184   81.3265 C   0  0  0  0  0  0  0  0  0  0  0  0
    2.8374   29.2669   80.3478 O   0  0  0  0  0  0  0  0  0  0  0  0
    1.6101   28.5749   82.1049 N   0  0  0  0  0  0  0  0  0  0  0  0
    0.4834   29.4560   81.8571 C   0  0  2  0  0  0  0  0  0  0  0  0
    0.3402   30.3903   83.0677 C   0  0  0  0  0  0  0  0  0  0  0  0
   -0.6790   28.5954   81.6531 C   0  0  0  0  0  0  0  0  0  0  0  0
   -0.5867   27.3999   81.5924 O   0  0  0  0  0  0  0  0  0  0  0  0
   -2.0559   29.0739   81.5077 N   0  0  0  0  0  0  0  0  0  0  0  0
   -2.1815   30.4637   81.5838 C   0  0  0  0  0  0  0  0  0  0  0  0
   -3.1249   28.0899   81.3365 C   0  0  1  0  0  0  0  0  0  0  0  0
   -4.0900   28.1378   82.4984 C   0  0  0  0  0  0  0  0  0  0  0  0
   -3.6251   27.8814   83.8567 C   0  0  0  0  0  0  0  0  0  0  0  0
   -4.8532   28.0184   84.7712 C   0  0  0  0  0  0  0  0  0  0  0  0
   -3.2331   26.4132   84.0348 C   0  0  0  0  0  0  0  0  0  0  0  0
   -3.9065   28.4387   80.1445 C   0  0  0  0  0  0  0  0  0  0  0  0
   -3.9058   29.5014   79.5217 O   0  0  0  0  0  0  0  0  0  0  0  0
   -4.8411   27.5131   79.5020 N   0  0  0  0  0  0  0  0  0  0  0  0
   -4.8665   26.2094   80.0832 C   0  0  0  0  0  0  0  0  0  0  0  0
   -5.6827   27.9093   78.3746 C   0  0  1  0  0  0  0  0  0  0  0  0
   -6.8330   28.7481   78.8945 C   0  0  0  0  0  0  0  0  0  0  0  0
   -7.8238   29.2274   77.9091 C   0  0  0  0  0  0  0  0  0  0  0  0
   -8.8635   30.0231   78.7679 C   0  0  0  0  0  0  0  0  0  0  0  0
   -8.6759   28.0829   77.3634 C   0  0  0  0  0  0  0  0  0  0  0  0
   -5.1513   28.2135   77.0950 C   0  0  0  0  0  0  0  0  0  0  0  0
   -5.6092   29.1534   76.4049 O   0  0  0  0  0  0  0  0  0  0  0  0
   -4.0777   27.5835   76.3631 N   0  0  0  0  0  0  0  0  0  0  0  0
   -3.4144   26.5254   77.0238 C   0  0  0  0  0  0  0  0  0  0  0  0
   -3.7540   28.0429   74.9782 C   0  0  1  0  0  0  0  0  0  0  0  0
   -4.6995   27.3527   74.0109 C   0  0  0  0  0  0  0  0  0  0  0  0
   -4.4442   27.7197   72.5685 C   0  0  0  0  0  0  0  0  0  0  0  0
   -6.1399   27.3952   74.2523 C   0  0  0  0  0  0  0  0  0  0  0  0
   -3.6050   29.4434   74.8370 C   0  0  0  0  0  0  0  0  0  0  0  0
   -4.1356   29.9112   73.7154 O   0  0  0  0  0  0  0  0  0  0  0  0
   -3.0694   30.5524   75.4672 N   0  0  0  0  0  0  0  0  0  0  0  0
   -3.7504   31.8622   74.9939 C   0  0  0  0  0  0  0  0  0  0  0  0
  1  2  2  0
  2  3  1  0
  3  4  2  0
  4  5  1  0
  5  6  1  0
  6  7  1  6
  6  8  1  0
  8  9  1  1
  8 10  1  0
 10 11  1  0
 11 12  2  0
 11 13  1  0
 13 14  1  0
 14 15  1  1
 15 16  1  0
 14 17  1  0
 17 18  2  0
 17 19  1  0
 19 20  1  0
 19 21  1  0
 21 22  1  0
 22 23  2  0
 22 24  1  0
 24 25  1  0
 24 26  1  0
 26 27  1  6
 27 28  1  0
 28 29  1  0
 28 30  1  0
 26 31  1  0
 31 32  2  0
 31 33  1  0
 33 34  1  0
 34 35  1  1
 35 36  1  0
 35 37  1  0
 34 38  1  0
 38 39  2  0
 38 40  1  0
 40 41  1  0
 40 42  1  0
 42 43  1  1
 43 44  1  0
 44 45  1  0
 44 46  1  0
 42 47  1  0
 47 48  2  0
 47 49  1  0
 49 50  1  0
 50 51  1  1
 50 52  1  0
 52 53  2  0
 52 54  1  0
 54 55  1  0
 55 56  1  1
 55 57  1  0
 57 58  2  0
 57 59  1  0
 59 60  1  0
 59 61  1  0
 61 62  1  1
 62 63  1  0
 63 64  1  0
 63 65  1  0
 61 66  1  0
 66 67  2  0
 66 68  1  0
 68 69  1  0
 68 70  1  0
 70 71  1  1
 71 72  1  0
 72 73  1  0
 72 74  1  0
 70 75  1  0
 75 76  2  0
 75 77  1  0
 77 78  1  0
 77 79  1  0
 79 80  1  6
 80 81  1  0
 80 82  1  0
 79 83  1  0
 83 84  2  0
 83 85  1  0
 85 86  1  0
 10 85  1  6
M  END
>  <shape_align_shape_tanimoto>  (3) 
0.26220554141047825

>  <shape_align_color_tanimoto>  (3) 
0.082547587358267949

>  <metric>  (3) 
combo

>  <metric_score>  (3) 
0.172

>  <template_pid>  (3) 
3ODL

>  <template_shape_score>  (3) 
0.262

>  <template_color_score>  (3) 
0.083

>  <template_combo_score>  (3) 
0.172

$$$$
