6OI8_shape_pose
     RDKit          3D

 31 36  0  0  0  0  0  0  0  0999 V2000
   59.9128   69.6484   14.2677 N   0  0  0  0  0  0  0  0  0  0  0  0
   60.6666   69.1766   13.1580 C   0  0  0  0  0  0  0  0  0  0  0  0
   60.4401   67.9064   12.7058 N   0  0  0  0  0  0  0  0  0  0  0  0
   61.1187   67.3980   11.6618 C   0  0  0  0  0  0  0  0  0  0  0  0
   62.0700   68.1668   11.0217 C   0  0  0  0  0  0  0  0  0  0  0  0
   62.7764   67.6494    9.9430 C   0  0  0  0  0  0  0  0  0  0  0  0
   63.7469   68.4152    9.2805 C   0  0  0  0  0  0  0  0  0  0  0  0
   64.4678   67.8539    8.1592 C   0  0  0  0  0  0  0  0  0  0  0  0
   65.7614   67.4131    8.3443 C   0  0  0  0  0  0  0  0  0  0  0  0
   66.5725   67.5248    9.9100 Cl  0  0  0  0  0  0  0  0  0  0  0  0
   66.5128   66.8486    7.3174 C   0  0  0  0  0  0  0  0  0  0  0  0
   65.9586   66.7172    6.0613 C   0  0  0  0  0  0  0  0  0  0  0  0
   64.6503   67.1543    5.8427 C   0  0  0  0  0  0  0  0  0  0  0  0
   63.9200   67.7186    6.8973 C   0  0  0  0  0  0  0  0  0  0  0  0
   62.5710   68.1497    6.5672 C   0  0  0  0  0  0  0  0  0  0  0  0
   62.3925   69.2997    5.7908 C   0  0  0  0  0  0  0  0  0  0  0  0
   61.1198   69.7427    5.4449 C   0  0  0  0  0  0  0  0  0  0  0  0
   60.0137   69.0161    5.8881 C   0  0  0  0  0  0  0  0  0  0  0  0
   60.1846   67.9045    6.6384 N   0  0  0  0  0  0  0  0  0  0  0  0
   61.4290   67.4943    6.9611 C   0  0  0  0  0  0  0  0  0  0  0  0
   63.9388   69.6790    9.7678 C   0  0  0  0  0  0  0  0  0  0  0  0
   64.8959   70.6072    9.2192 N   0  0  0  0  0  0  0  0  0  0  0  0
   64.9205   71.1422    7.8798 C   0  0  0  0  0  0  0  0  0  0  0  0
   66.2608   71.8193    7.7983 C   0  0  2  0  0  0  0  0  0  0  0  0
   67.4156   70.8630    7.8740 C   0  0  1  0  0  0  0  0  0  0  0  0
   68.6441   71.3351    7.2314 N   0  0  0  0  0  0  0  0  0  0  0  0
   66.9902   71.5983    9.0813 C   0  0  2  0  0  0  0  0  0  0  0  0
   65.9696   71.1236   10.0362 C   0  0  0  0  0  0  0  0  0  0  0  0
   63.2332   70.1633   10.8273 N   0  0  0  0  0  0  0  0  0  0  0  0
   62.3032   69.4611   11.4795 C   0  0  0  0  0  0  0  0  0  0  0  0
   61.5981   69.9221   12.5270 N   0  0  0  0  0  0  0  0  0  0  0  0
  1  2  1  0
  2  3  2  0
  3  4  1  0
  4  5  2  0
  5  6  1  0
  6  7  2  0
  7  8  1  0
  8  9  2  0
  9 10  1  0
  9 11  1  0
 11 12  2  0
 12 13  1  0
 13 14  2  0
 14 15  1  0
 15 16  2  0
 16 17  1  0
 17 18  2  0
 18 19  1  0
 19 20  2  0
  7 21  1  0
 21 22  1  0
 22 23  1  0
 24 23  1  1
 24 25  1  0
 25 26  1  6
 25 27  1  0
 27 28  1  1
 21 29  2  0
 29 30  1  0
 30 31  2  0
 31  2  1  0
 30  5  1  0
 14  8  1  0
 20 15  1  0
 28 22  1  0
 27 24  1  0
M  CHG  1  26   1
M  END
>  <shape_align_shape_tanimoto>  (1) 
0.49185774581568154

>  <shape_align_color_tanimoto>  (1) 
0.013511479686667187

>  <metric>  (1) 
shape

>  <metric_score>  (1) 
0.492

>  <template_pid>  (1) 
6OI8

>  <template_shape_score>  (1) 
0.492

>  <template_color_score>  (1) 
0.014

>  <template_combo_score>  (1) 
0.253

$$$$
6OI8_color_pose
     RDKit          3D

 31 36  0  0  0  0  0  0  0  0999 V2000
   66.5931   72.1949    8.0391 N   0  0  0  0  0  0  0  0  0  0  0  0
   65.7941   71.0482    8.3066 C   0  0  0  0  0  0  0  0  0  0  0  0
   65.8863   70.0305    7.4310 N   0  0  0  0  0  0  0  0  0  0  0  0
   65.1508   68.9189    7.6355 C   0  0  0  0  0  0  0  0  0  0  0  0
   64.3212   68.8474    8.7352 C   0  0  0  0  0  0  0  0  0  0  0  0
   63.5573   67.7385    8.9821 C   0  0  0  0  0  0  0  0  0  0  0  0
   62.7132   67.6628   10.1000 C   0  0  0  0  0  0  0  0  0  0  0  0
   61.9791   66.4419   10.2579 C   0  0  0  0  0  0  0  0  0  0  0  0
   62.3603   65.5172   11.2456 C   0  0  0  0  0  0  0  0  0  0  0  0
   63.7030   65.8580   12.3187 Cl  0  0  0  0  0  0  0  0  0  0  0  0
   61.6705   64.3186   11.3783 C   0  0  0  0  0  0  0  0  0  0  0  0
   60.5988   64.0322   10.5307 C   0  0  0  0  0  0  0  0  0  0  0  0
   60.2317   64.9435    9.5657 C   0  0  0  0  0  0  0  0  0  0  0  0
   60.9053   66.1585    9.4064 C   0  0  0  0  0  0  0  0  0  0  0  0
   60.5135   67.1178    8.3891 C   0  0  0  0  0  0  0  0  0  0  0  0
   60.0524   68.3725    8.7799 C   0  0  0  0  0  0  0  0  0  0  0  0
   59.6646   69.3299    7.8547 C   0  0  0  0  0  0  0  0  0  0  0  0
   59.7560   68.9820    6.5257 C   0  0  0  0  0  0  0  0  0  0  0  0
   60.2011   67.7673    6.1223 N   0  0  0  0  0  0  0  0  0  0  0  0
   60.5788   66.8358    7.0241 C   0  0  0  0  0  0  0  0  0  0  0  0
   62.6290   68.7010   10.9775 C   0  0  0  0  0  0  0  0  0  0  0  0
   61.7819   68.7456   12.1126 N   0  0  0  0  0  0  0  0  0  0  0  0
   61.9769   69.7769   13.1702 C   0  0  0  0  0  0  0  0  0  0  0  0
   60.5660   70.3158   13.1874 C   0  0  2  0  0  0  0  0  0  0  0  0
   59.6505   69.7741   14.2162 C   0  0  1  0  0  0  0  0  0  0  0  0
   58.4653   70.6040   14.4452 N   0  0  0  0  0  0  0  0  0  0  0  0
   59.6736   69.0861   12.9318 C   0  0  2  0  0  0  0  0  0  0  0  0
   60.6587   68.0078   12.5564 C   0  0  0  0  0  0  0  0  0  0  0  0
   63.4090   69.7902   10.6945 N   0  0  0  0  0  0  0  0  0  0  0  0
   64.2235   69.8882    9.6357 C   0  0  0  0  0  0  0  0  0  0  0  0
   64.9738   70.9778    9.3940 N   0  0  0  0  0  0  0  0  0  0  0  0
  1  2  1  0
  2  3  2  0
  3  4  1  0
  4  5  2  0
  5  6  1  0
  6  7  2  0
  7  8  1  0
  8  9  2  0
  9 10  1  0
  9 11  1  0
 11 12  2  0
 12 13  1  0
 13 14  2  0
 14 15  1  0
 15 16  2  0
 16 17  1  0
 17 18  2  0
 18 19  1  0
 19 20  2  0
  7 21  1  0
 21 22  1  0
 22 23  1  0
 24 23  1  1
 24 25  1  0
 25 26  1  6
 25 27  1  0
 27 28  1  1
 21 29  2  0
 29 30  1  0
 30 31  2  0
 31  2  1  0
 30  5  1  0
 14  8  1  0
 20 15  1  0
 28 22  1  0
 27 24  1  0
M  CHG  1  26   1
M  END
>  <shape_align_shape_tanimoto>  (2) 
0.42783005607924773

>  <shape_align_color_tanimoto>  (2) 
0.071610608560418593

>  <metric>  (2) 
color

>  <metric_score>  (2) 
0.072

>  <template_pid>  (2) 
6OI8

>  <template_shape_score>  (2) 
0.428

>  <template_color_score>  (2) 
0.072

>  <template_combo_score>  (2) 
0.250

$$$$
6OI8_combo_pose
     RDKit          3D

 31 36  0  0  0  0  0  0  0  0999 V2000
   60.0127   69.6651   14.2243 N   0  0  0  0  0  0  0  0  0  0  0  0
   60.7282   69.1343   13.1042 C   0  0  0  0  0  0  0  0  0  0  0  0
   60.4989   67.8663   12.6608 N   0  0  0  0  0  0  0  0  0  0  0  0
   61.1545   67.3372   11.6104 C   0  0  0  0  0  0  0  0  0  0  0  0
   62.0894   68.1287   10.9752 C   0  0  0  0  0  0  0  0  0  0  0  0
   62.8210   67.6915    9.8899 C   0  0  0  0  0  0  0  0  0  0  0  0
   63.7594   68.5405    9.2831 C   0  0  0  0  0  0  0  0  0  0  0  0
   64.4884   67.9593    8.1674 C   0  0  0  0  0  0  0  0  0  0  0  0
   65.8402   67.6090    8.3140 C   0  0  0  0  0  0  0  0  0  0  0  0
   66.6409   67.9254    9.8538 Cl  0  0  0  0  0  0  0  0  0  0  0  0
   66.5412   67.0308    7.2900 C   0  0  0  0  0  0  0  0  0  0  0  0
   65.8901   66.7924    6.0901 C   0  0  0  0  0  0  0  0  0  0  0  0
   64.5605   67.1308    5.9285 C   0  0  0  0  0  0  0  0  0  0  0  0
   63.8300   67.7179    6.9530 C   0  0  0  0  0  0  0  0  0  0  0  0
   62.4302   68.0660    6.7573 C   0  0  0  0  0  0  0  0  0  0  0  0
   61.9870   69.3690    6.8134 C   0  0  0  0  0  0  0  0  0  0  0  0
   60.6370   69.6121    6.6153 C   0  0  0  0  0  0  0  0  0  0  0  0
   59.7829   68.5405    6.3688 C   0  0  0  0  0  0  0  0  0  0  0  0
   60.2286   67.2734    6.3166 N   0  0  0  0  0  0  0  0  0  0  0  0
   61.5473   67.0186    6.5084 C   0  0  0  0  0  0  0  0  0  0  0  0
   63.9893   69.8175    9.7278 C   0  0  0  0  0  0  0  0  0  0  0  0
   64.8721   70.7424    9.1577 N   0  0  0  0  0  0  0  0  0  0  0  0
   65.3365   71.9426    9.8957 C   0  0  0  0  0  0  0  0  0  0  0  0
   66.8439   71.7837    9.6565 C   0  0  2  0  0  0  0  0  0  0  0  0
   67.4712   72.4698    8.4863 C   0  0  1  0  0  0  0  0  0  0  0  0
   68.8986   72.6615    8.5541 N   0  0  0  0  0  0  0  0  0  0  0  0
   66.9640   71.0728    8.3144 C   0  0  2  0  0  0  0  0  0  0  0  0
   65.5200   70.8916    7.8807 C   0  0  0  0  0  0  0  0  0  0  0  0
   63.2417   70.2067   10.8064 N   0  0  0  0  0  0  0  0  0  0  0  0
   62.3399   69.4162   11.4051 C   0  0  0  0  0  0  0  0  0  0  0  0
   61.6472   69.8797   12.4616 N   0  0  0  0  0  0  0  0  0  0  0  0
  1  2  1  0
  2  3  2  0
  3  4  1  0
  4  5  2  0
  5  6  1  0
  6  7  2  0
  7  8  1  0
  8  9  2  0
  9 10  1  0
  9 11  1  0
 11 12  2  0
 12 13  1  0
 13 14  2  0
 14 15  1  0
 15 16  2  0
 16 17  1  0
 17 18  2  0
 18 19  1  0
 19 20  2  0
  7 21  1  0
 21 22  1  0
 22 23  1  0
 24 23  1  6
 24 25  1  0
 25 26  1  1
 25 27  1  0
 27 28  1  6
 21 29  2  0
 29 30  1  0
 30 31  2  0
 31  2  1  0
 30  5  1  0
 14  8  1  0
 20 15  1  0
 28 22  1  0
 27 24  1  0
M  CHG  1  26   1
M  END
>  <shape_align_shape_tanimoto>  (3) 
0.49057551473873739

>  <shape_align_color_tanimoto>  (3) 
0.016137353936055476

>  <metric>  (3) 
combo

>  <metric_score>  (3) 
0.253

>  <template_pid>  (3) 
6OI8

>  <template_shape_score>  (3) 
0.491

>  <template_color_score>  (3) 
0.016

>  <template_combo_score>  (3) 
0.253

$$$$
