5N2D_shape_pose
     RDKit          3D

 33 35  0  0  0  0  0  0  0  0999 V2000
    1.3745   -0.3227  -25.5072 C   0  0  0  0  0  0  0  0  0  0  0  0
    0.1154   -0.1886  -25.1013 O   0  0  0  0  0  0  0  0  0  0  0  0
   -0.4504   -0.0703  -23.9000 C   0  0  0  0  0  0  0  0  0  0  0  0
    0.1815   -0.0484  -22.6329 C   0  0  0  0  0  0  0  0  0  0  0  0
   -0.5216    0.0983  -21.4171 C   0  0  0  0  0  0  0  0  0  0  0  0
    0.0122    0.0585  -20.2028 O   0  0  0  0  0  0  0  0  0  0  0  0
    1.1742   -0.0476  -19.4973 C   0  0  0  0  0  0  0  0  0  0  0  0
    1.9980   -1.0782  -20.3067 C   0  0  0  0  0  0  0  0  0  0  0  0
    1.4693   -2.2937  -20.6406 C   0  0  0  0  0  0  0  0  0  0  0  0
    2.0255   -2.9293  -21.7805 C   0  0  0  0  0  0  0  0  0  0  0  0
    3.0418   -2.3509  -22.5227 C   0  0  0  0  0  0  0  0  0  0  0  0
    3.5568   -1.0868  -22.1365 C   0  0  0  0  0  0  0  0  0  0  0  0
    4.3295   -0.2814  -23.1350 C   0  0  0  0  0  0  0  0  0  0  0  0
    5.1136   -0.8198  -24.1047 C   0  0  0  0  0  0  0  0  0  0  0  0
    5.6285    0.0737  -25.0471 C   0  0  0  0  0  0  0  0  0  0  0  0
    5.4030    1.4095  -25.0487 C   0  0  0  0  0  0  0  0  0  0  0  0
    4.6235    1.9589  -24.0611 C   0  0  0  0  0  0  0  0  0  0  0  0
    4.1013    1.0630  -23.1135 C   0  0  0  0  0  0  0  0  0  0  0  0
    3.0318   -0.4598  -21.0064 C   0  0  0  0  0  0  0  0  0  0  0  0
    3.7388    0.7050  -20.3525 C   0  0  0  0  0  0  0  0  0  0  0  0
   -1.9209    0.2470  -21.5032 C   0  0  0  0  0  0  0  0  0  0  0  0
   -2.6146    0.2402  -22.6984 C   0  0  0  0  0  0  0  0  0  0  0  0
   -3.8833    0.4109  -22.9317 O   0  0  0  0  0  0  0  0  0  0  0  0
   -5.1477    0.5817  -23.1531 C   0  0  0  0  0  0  0  0  0  0  0  0
   -1.8081    0.0630  -23.8260 C   0  0  0  0  0  0  0  0  0  0  0  0
   -2.5750   -0.5525  -24.9922 C   0  0  0  0  0  0  0  0  0  0  0  0
   -2.7276   -2.0216  -24.6704 N   0  0  0  0  0  0  0  0  0  0  0  0
   -2.4183   -2.3953  -23.3612 C   0  0  0  0  0  0  0  0  0  0  0  0
   -3.2749   -2.6980  -22.2424 C   0  0  0  0  0  0  0  0  0  0  0  0
   -4.0229   -3.9098  -22.0902 N   0  0  0  0  0  0  0  0  0  0  0  0
   -5.0478   -4.4555  -22.8611 C   0  0  0  0  0  0  0  0  0  0  0  0
   -5.6257   -5.7630  -22.3649 C   0  0  0  0  0  0  0  0  0  0  0  0
   -5.4172   -3.8750  -23.8720 O   0  0  0  0  0  0  0  0  0  0  0  0
  1  2  1  0
  2  3  1  0
  3  4  2  0
  4  5  1  0
  5  6  1  0
  6  7  1  0
  7  8  1  0
  8  9  2  0
  9 10  1  0
 10 11  2  0
 11 12  1  0
 12 13  1  0
 13 14  2  0
 14 15  1  0
 15 16  2  0
 16 17  1  0
 17 18  2  0
 12 19  2  0
 19 20  1  0
  5 21  2  0
 21 22  1  0
 22 23  1  0
 23 24  1  0
 22 25  2  0
 25 26  1  0
 26 27  1  0
 27 28  1  0
 28 29  1  0
 29 30  1  0
 30 31  1  0
 31 32  1  0
 31 33  2  0
 25  3  1  0
 19  8  1  0
 18 13  1  0
M  CHG  1  27   1
M  END
>  <shape_align_shape_tanimoto>  (1) 
0.34078972665881785

>  <shape_align_color_tanimoto>  (1) 
0.0019648439912942697

>  <metric>  (1) 
shape

>  <metric_score>  (1) 
0.341

>  <template_pid>  (1) 
5N2D

>  <template_shape_score>  (1) 
0.341

>  <template_color_score>  (1) 
0.002

>  <template_combo_score>  (1) 
0.171

$$$$
5N2D_color_pose
     RDKit          3D

 33 35  0  0  0  0  0  0  0  0999 V2000
    0.3948   -0.5863  -25.5716 C   0  0  0  0  0  0  0  0  0  0  0  0
    1.0782   -0.6011  -24.3354 O   0  0  0  0  0  0  0  0  0  0  0  0
    0.3336   -0.3470  -23.1874 C   0  0  0  0  0  0  0  0  0  0  0  0
   -1.0185   -0.0879  -23.2214 C   0  0  0  0  0  0  0  0  0  0  0  0
   -1.7885    0.1667  -22.1145 C   0  0  0  0  0  0  0  0  0  0  0  0
   -3.1056    0.4260  -22.0638 O   0  0  0  0  0  0  0  0  0  0  0  0
   -4.1138    0.5238  -22.9990 C   0  0  0  0  0  0  0  0  0  0  0  0
   -4.3646   -0.7204  -23.7629 C   0  0  0  0  0  0  0  0  0  0  0  0
   -4.0199   -0.9166  -25.0758 C   0  0  0  0  0  0  0  0  0  0  0  0
   -4.2750   -2.0683  -25.7845 C   0  0  0  0  0  0  0  0  0  0  0  0
   -4.9193   -3.1184  -25.1663 C   0  0  0  0  0  0  0  0  0  0  0  0
   -5.2888   -2.9588  -23.8250 C   0  0  0  0  0  0  0  0  0  0  0  0
   -5.9692   -4.0993  -23.2236 C   0  0  0  0  0  0  0  0  0  0  0  0
   -7.0890   -4.0248  -22.4616 C   0  0  0  0  0  0  0  0  0  0  0  0
   -7.6322   -5.2059  -21.9491 C   0  0  0  0  0  0  0  0  0  0  0  0
   -7.0737   -6.4387  -22.1889 C   0  0  0  0  0  0  0  0  0  0  0  0
   -5.9286   -6.5140  -22.9683 C   0  0  0  0  0  0  0  0  0  0  0  0
   -5.3905   -5.3486  -23.4755 C   0  0  0  0  0  0  0  0  0  0  0  0
   -5.0193   -1.7897  -23.1378 C   0  0  0  0  0  0  0  0  0  0  0  0
   -5.4253   -1.6602  -21.7221 C   0  0  0  0  0  0  0  0  0  0  0  0
   -1.1001    0.1503  -20.8862 C   0  0  0  0  0  0  0  0  0  0  0  0
    0.2465   -0.1035  -20.8082 C   0  0  0  0  0  0  0  0  0  0  0  0
    0.9553   -0.1282  -19.6168 O   0  0  0  0  0  0  0  0  0  0  0  0
    0.4236    0.0985  -18.3448 C   0  0  0  0  0  0  0  0  0  0  0  0
    0.9584   -0.3515  -21.9621 C   0  0  0  0  0  0  0  0  0  0  0  0
    2.4172   -0.6245  -21.8912 C   0  0  0  0  0  0  0  0  0  0  0  0
    2.5579   -2.0822  -22.0747 N   0  0  0  0  0  0  0  0  0  0  0  0
    3.9008   -2.4694  -22.2416 C   0  0  0  0  0  0  0  0  0  0  0  0
    4.0601   -3.7878  -22.9143 C   0  0  0  0  0  0  0  0  0  0  0  0
    3.5401   -4.9551  -22.2956 N   0  0  0  0  0  0  0  0  0  0  0  0
    2.2273   -5.3300  -22.0148 C   0  0  0  0  0  0  0  0  0  0  0  0
    2.0159   -6.6646  -21.3133 C   0  0  0  0  0  0  0  0  0  0  0  0
    1.1902   -4.7101  -22.2647 O   0  0  0  0  0  0  0  0  0  0  0  0
  1  2  1  0
  2  3  1  0
  3  4  2  0
  4  5  1  0
  5  6  1  0
  6  7  1  0
  7  8  1  0
  8  9  2  0
  9 10  1  0
 10 11  2  0
 11 12  1  0
 12 13  1  0
 13 14  2  0
 14 15  1  0
 15 16  2  0
 16 17  1  0
 17 18  2  0
 12 19  2  0
 19 20  1  0
  5 21  2  0
 21 22  1  0
 22 23  1  0
 23 24  1  0
 22 25  2  0
 25 26  1  0
 26 27  1  0
 27 28  1  0
 28 29  1  0
 29 30  1  0
 30 31  1  0
 31 32  1  0
 31 33  2  0
 25  3  1  0
 19  8  1  0
 18 13  1  0
M  CHG  1  27   1
M  END
>  <shape_align_shape_tanimoto>  (2) 
0.31920778558472646

>  <shape_align_color_tanimoto>  (2) 
0.023017391733562487

>  <metric>  (2) 
color

>  <metric_score>  (2) 
0.023

>  <template_pid>  (2) 
5N2D

>  <template_shape_score>  (2) 
0.319

>  <template_color_score>  (2) 
0.023

>  <template_combo_score>  (2) 
0.171

$$$$
5N2D_combo_pose
     RDKit          3D

 33 35  0  0  0  0  0  0  0  0999 V2000
    1.3745   -0.3227  -25.5072 C   0  0  0  0  0  0  0  0  0  0  0  0
    0.1154   -0.1886  -25.1013 O   0  0  0  0  0  0  0  0  0  0  0  0
   -0.4504   -0.0703  -23.9000 C   0  0  0  0  0  0  0  0  0  0  0  0
    0.1815   -0.0484  -22.6329 C   0  0  0  0  0  0  0  0  0  0  0  0
   -0.5216    0.0983  -21.4171 C   0  0  0  0  0  0  0  0  0  0  0  0
    0.0122    0.0585  -20.2028 O   0  0  0  0  0  0  0  0  0  0  0  0
    1.1742   -0.0476  -19.4973 C   0  0  0  0  0  0  0  0  0  0  0  0
    1.9980   -1.0782  -20.3067 C   0  0  0  0  0  0  0  0  0  0  0  0
    1.4693   -2.2937  -20.6406 C   0  0  0  0  0  0  0  0  0  0  0  0
    2.0255   -2.9293  -21.7805 C   0  0  0  0  0  0  0  0  0  0  0  0
    3.0418   -2.3509  -22.5227 C   0  0  0  0  0  0  0  0  0  0  0  0
    3.5568   -1.0868  -22.1365 C   0  0  0  0  0  0  0  0  0  0  0  0
    4.3295   -0.2814  -23.1350 C   0  0  0  0  0  0  0  0  0  0  0  0
    5.1136   -0.8198  -24.1047 C   0  0  0  0  0  0  0  0  0  0  0  0
    5.6285    0.0737  -25.0471 C   0  0  0  0  0  0  0  0  0  0  0  0
    5.4030    1.4095  -25.0487 C   0  0  0  0  0  0  0  0  0  0  0  0
    4.6235    1.9589  -24.0611 C   0  0  0  0  0  0  0  0  0  0  0  0
    4.1013    1.0630  -23.1135 C   0  0  0  0  0  0  0  0  0  0  0  0
    3.0318   -0.4598  -21.0064 C   0  0  0  0  0  0  0  0  0  0  0  0
    3.7388    0.7050  -20.3525 C   0  0  0  0  0  0  0  0  0  0  0  0
   -1.9209    0.2470  -21.5032 C   0  0  0  0  0  0  0  0  0  0  0  0
   -2.6146    0.2402  -22.6984 C   0  0  0  0  0  0  0  0  0  0  0  0
   -3.8833    0.4109  -22.9317 O   0  0  0  0  0  0  0  0  0  0  0  0
   -5.1477    0.5817  -23.1531 C   0  0  0  0  0  0  0  0  0  0  0  0
   -1.8081    0.0630  -23.8260 C   0  0  0  0  0  0  0  0  0  0  0  0
   -2.5750   -0.5525  -24.9922 C   0  0  0  0  0  0  0  0  0  0  0  0
   -2.7276   -2.0216  -24.6704 N   0  0  0  0  0  0  0  0  0  0  0  0
   -2.4183   -2.3953  -23.3612 C   0  0  0  0  0  0  0  0  0  0  0  0
   -3.2749   -2.6980  -22.2424 C   0  0  0  0  0  0  0  0  0  0  0  0
   -4.0229   -3.9098  -22.0902 N   0  0  0  0  0  0  0  0  0  0  0  0
   -5.0478   -4.4555  -22.8611 C   0  0  0  0  0  0  0  0  0  0  0  0
   -5.6257   -5.7630  -22.3649 C   0  0  0  0  0  0  0  0  0  0  0  0
   -5.4172   -3.8750  -23.8720 O   0  0  0  0  0  0  0  0  0  0  0  0
  1  2  1  0
  2  3  1  0
  3  4  2  0
  4  5  1  0
  5  6  1  0
  6  7  1  0
  7  8  1  0
  8  9  2  0
  9 10  1  0
 10 11  2  0
 11 12  1  0
 12 13  1  0
 13 14  2  0
 14 15  1  0
 15 16  2  0
 16 17  1  0
 17 18  2  0
 12 19  2  0
 19 20  1  0
  5 21  2  0
 21 22  1  0
 22 23  1  0
 23 24  1  0
 22 25  2  0
 25 26  1  0
 26 27  1  0
 27 28  1  0
 28 29  1  0
 29 30  1  0
 30 31  1  0
 31 32  1  0
 31 33  2  0
 25  3  1  0
 19  8  1  0
 18 13  1  0
M  CHG  1  27   1
M  END
>  <shape_align_shape_tanimoto>  (3) 
0.34078972665881785

>  <shape_align_color_tanimoto>  (3) 
0.0019648439912942697

>  <metric>  (3) 
combo

>  <metric_score>  (3) 
0.171

>  <template_pid>  (3) 
5N2D

>  <template_shape_score>  (3) 
0.341

>  <template_color_score>  (3) 
0.002

>  <template_combo_score>  (3) 
0.171

$$$$
