5TOB_shape_pose
     RDKit          3D

 35 38  0  0  0  0  0  0  0  0999 V2000
  -10.4547  -10.5018  -39.2192 C   0  0  0  0  0  0  0  0  0  0  0  0
   -9.2829   -9.9675  -38.5219 N   0  0  0  0  0  0  0  0  0  0  0  0
   -9.4238   -9.7034  -37.1432 C   0  0  0  0  0  0  0  0  0  0  0  0
   -9.8548   -8.4521  -36.8148 N   0  0  0  0  0  0  0  0  0  0  0  0
  -10.0740   -8.0554  -35.5509 C   0  0  0  0  0  0  0  0  0  0  0  0
   -9.8458   -8.9744  -34.5459 C   0  0  0  0  0  0  0  0  0  0  0  0
   -9.4056  -10.2591  -34.8398 C   0  0  0  0  0  0  0  0  0  0  0  0
   -9.1925  -10.6259  -36.1463 C   0  0  0  0  0  0  0  0  0  0  0  0
   -8.6808  -11.9794  -36.4832 C   0  0  0  0  0  0  0  0  0  0  0  0
   -7.2298  -11.8434  -36.6497 N   0  0  0  0  0  0  0  0  0  0  0  0
   -6.4928  -12.9938  -37.0713 C   0  0  0  0  0  0  0  0  0  0  0  0
   -7.1165  -14.1461  -37.3626 N   0  0  0  0  0  0  0  0  0  0  0  0
   -6.5318  -15.2671  -37.7951 C   0  0  0  0  0  0  0  0  0  0  0  0
   -7.3292  -16.4134  -38.0558 N   0  0  0  0  0  0  0  0  0  0  0  0
   -7.4699  -17.4643  -37.1087 C   0  0  0  0  0  0  0  0  0  0  0  0
   -6.7439  -17.3804  -35.9234 C   0  0  0  0  0  0  0  0  0  0  0  0
   -6.9029  -18.4249  -35.0421 C   0  0  0  0  0  0  0  0  0  0  0  0
   -7.7213  -19.5015  -35.2863 C   0  0  0  0  0  0  0  0  0  0  0  0
   -8.4571  -19.5935  -36.4770 C   0  0  0  0  0  0  0  0  0  0  0  0
   -8.2896  -18.5413  -37.3525 C   0  0  0  0  0  0  0  0  0  0  0  0
   -9.2617  -20.8405  -36.4689 C   0  0  0  0  0  0  0  0  0  0  0  0
   -8.8949  -21.5105  -35.2097 C   0  0  0  0  0  0  0  0  0  0  0  0
   -9.2491  -22.6168  -34.7295 O   0  0  0  0  0  0  0  0  0  0  0  0
   -7.9746  -20.6566  -34.5020 N   0  0  0  0  0  0  0  0  0  0  0  0
   -5.1944  -15.2413  -37.9542 N   0  0  0  0  0  0  0  0  0  0  0  0
   -4.4949  -14.1125  -37.6791 C   0  0  0  0  0  0  0  0  0  0  0  0
   -5.1256  -12.9557  -37.2288 C   0  0  0  0  0  0  0  0  0  0  0  0
   -4.3343  -11.7554  -36.9122 C   0  0  0  0  0  0  0  0  0  0  0  0
   -4.4680  -11.3898  -35.5829 F   0  0  0  0  0  0  0  0  0  0  0  0
   -2.9713  -11.9788  -37.0937 F   0  0  0  0  0  0  0  0  0  0  0  0
   -4.6530  -10.6504  -37.6559 F   0  0  0  0  0  0  0  0  0  0  0  0
   -7.8610   -9.7185  -39.4518 S   0  0  0  0  0  0  0  0  0  0  0  0
   -7.1876  -11.2681  -39.9965 C   0  0  0  0  0  0  0  0  0  0  0  0
   -8.2982   -8.8929  -40.6591 O   0  0  0  0  0  0  0  0  0  0  0  0
   -6.8545   -8.8877  -38.7218 O   0  0  0  0  0  0  0  0  0  0  0  0
  1  2  1  0
  2  3  1  0
  3  4  2  0
  4  5  1  0
  5  6  2  0
  6  7  1  0
  7  8  2  0
  8  9  1  0
  9 10  1  0
 10 11  1  0
 11 12  2  0
 12 13  1  0
 13 14  1  0
 14 15  1  0
 15 16  2  0
 16 17  1  0
 17 18  2  0
 18 19  1  0
 19 20  2  0
 19 21  1  0
 21 22  1  0
 22 23  2  0
 22 24  1  0
 13 25  2  0
 25 26  1  0
 26 27  2  0
 27 28  1  0
 28 29  1  0
 28 30  1  0
 28 31  1  0
  2 32  1  0
 32 33  1  0
 32 34  2  0
 32 35  2  0
  8  3  1  0
 27 11  1  0
 20 15  1  0
 24 18  1  0
M  END
>  <shape_align_shape_tanimoto>  (1) 
0.64012457991381855

>  <shape_align_color_tanimoto>  (1) 
0.031003593528305978

>  <metric>  (1) 
shape

>  <metric_score>  (1) 
0.640

>  <template_pid>  (1) 
5TOB

>  <template_shape_score>  (1) 
0.640

>  <template_color_score>  (1) 
0.031

>  <template_combo_score>  (1) 
0.336

$$$$
5TOB_color_pose
     RDKit          3D

 35 38  0  0  0  0  0  0  0  0999 V2000
   -6.1917  -21.2291  -36.2205 C   0  0  0  0  0  0  0  0  0  0  0  0
   -6.3728  -19.8745  -35.6696 N   0  0  0  0  0  0  0  0  0  0  0  0
   -7.4134  -19.1117  -36.2523 C   0  0  0  0  0  0  0  0  0  0  0  0
   -8.6175  -19.1677  -35.6166 N   0  0  0  0  0  0  0  0  0  0  0  0
   -9.7160  -18.5466  -36.0514 C   0  0  0  0  0  0  0  0  0  0  0  0
   -9.6077  -17.8100  -37.2140 C   0  0  0  0  0  0  0  0  0  0  0  0
   -8.4007  -17.7378  -37.8764 C   0  0  0  0  0  0  0  0  0  0  0  0
   -7.2576  -18.3972  -37.4036 C   0  0  0  0  0  0  0  0  0  0  0  0
   -6.0411  -18.2637  -38.2030 C   0  0  0  0  0  0  0  0  0  0  0  0
   -5.0528  -17.3291  -37.7746 N   0  0  0  0  0  0  0  0  0  0  0  0
   -5.2867  -15.9592  -37.4908 C   0  0  0  0  0  0  0  0  0  0  0  0
   -6.5427  -15.4947  -37.5402 N   0  0  0  0  0  0  0  0  0  0  0  0
   -6.9018  -14.2198  -37.2483 C   0  0  0  0  0  0  0  0  0  0  0  0
   -8.2613  -13.8401  -37.3398 N   0  0  0  0  0  0  0  0  0  0  0  0
   -8.8206  -12.5976  -37.0615 C   0  0  0  0  0  0  0  0  0  0  0  0
  -10.1916  -12.4107  -37.2988 C   0  0  0  0  0  0  0  0  0  0  0  0
  -10.8253  -11.2178  -37.0480 C   0  0  0  0  0  0  0  0  0  0  0  0
  -10.1302  -10.1412  -36.5460 C   0  0  0  0  0  0  0  0  0  0  0  0
   -8.7852  -10.2873  -36.3010 C   0  0  0  0  0  0  0  0  0  0  0  0
   -8.1621  -11.4987  -36.5601 C   0  0  0  0  0  0  0  0  0  0  0  0
   -8.2287   -9.0021  -35.7589 C   0  0  0  0  0  0  0  0  0  0  0  0
   -9.4305   -8.1343  -35.7437 C   0  0  0  0  0  0  0  0  0  0  0  0
   -9.4267   -6.9166  -35.3520 O   0  0  0  0  0  0  0  0  0  0  0  0
  -10.5731   -8.8315  -36.2179 N   0  0  0  0  0  0  0  0  0  0  0  0
   -5.9018  -13.4012  -36.8903 N   0  0  0  0  0  0  0  0  0  0  0  0
   -4.6290  -13.8069  -36.8236 C   0  0  0  0  0  0  0  0  0  0  0  0
   -4.2690  -15.1038  -37.1223 C   0  0  0  0  0  0  0  0  0  0  0  0
   -2.8439  -15.5044  -37.0808 C   0  0  0  0  0  0  0  0  0  0  0  0
   -2.0918  -14.4056  -36.6818 F   0  0  0  0  0  0  0  0  0  0  0  0
   -2.3686  -15.8299  -38.3406 F   0  0  0  0  0  0  0  0  0  0  0  0
   -2.5761  -16.4853  -36.1613 F   0  0  0  0  0  0  0  0  0  0  0  0
   -5.3606  -19.3032  -34.4001 S   0  0  0  0  0  0  0  0  0  0  0  0
   -6.4194  -18.9689  -32.9915 C   0  0  0  0  0  0  0  0  0  0  0  0
   -4.6153  -18.0813  -34.7604 O   0  0  0  0  0  0  0  0  0  0  0  0
   -4.3547  -20.3735  -34.0877 O   0  0  0  0  0  0  0  0  0  0  0  0
  1  2  1  0
  2  3  1  0
  3  4  2  0
  4  5  1  0
  5  6  2  0
  6  7  1  0
  7  8  2  0
  8  9  1  0
  9 10  1  0
 10 11  1  0
 11 12  2  0
 12 13  1  0
 13 14  1  0
 14 15  1  0
 15 16  2  0
 16 17  1  0
 17 18  2  0
 18 19  1  0
 19 20  2  0
 19 21  1  0
 21 22  1  0
 22 23  2  0
 22 24  1  0
 13 25  2  0
 25 26  1  0
 26 27  2  0
 27 28  1  0
 28 29  1  0
 28 30  1  0
 28 31  1  0
  2 32  1  0
 32 33  1  0
 32 34  2  0
 32 35  2  0
  8  3  1  0
 27 11  1  0
 20 15  1  0
 24 18  1  0
M  END
>  <shape_align_shape_tanimoto>  (2) 
0.48985900373631525

>  <shape_align_color_tanimoto>  (2) 
0.10352512039500274

>  <metric>  (2) 
color

>  <metric_score>  (2) 
0.104

>  <template_pid>  (2) 
5TOB

>  <template_shape_score>  (2) 
0.490

>  <template_color_score>  (2) 
0.104

>  <template_combo_score>  (2) 
0.297

$$$$
5TOB_combo_pose
     RDKit          3D

 35 38  0  0  0  0  0  0  0  0999 V2000
   -9.1409  -12.5552  -33.9201 C   0  0  0  0  0  0  0  0  0  0  0  0
  -10.1691  -11.7863  -34.5940 N   0  0  0  0  0  0  0  0  0  0  0  0
   -9.8887  -10.6518  -35.4105 C   0  0  0  0  0  0  0  0  0  0  0  0
   -9.9472   -9.4518  -34.7552 N   0  0  0  0  0  0  0  0  0  0  0  0
   -9.7254   -8.2865  -35.3803 C   0  0  0  0  0  0  0  0  0  0  0  0
   -9.4290   -8.2809  -36.7236 C   0  0  0  0  0  0  0  0  0  0  0  0
   -9.3695   -9.4813  -37.3786 C   0  0  0  0  0  0  0  0  0  0  0  0
   -9.5964  -10.7082  -36.7426 C   0  0  0  0  0  0  0  0  0  0  0  0
   -9.4572  -11.9896  -37.4999 C   0  0  0  0  0  0  0  0  0  0  0  0
   -8.2540  -12.6559  -37.4661 N   0  0  0  0  0  0  0  0  0  0  0  0
   -7.0550  -13.3246  -37.4345 C   0  0  0  0  0  0  0  0  0  0  0  0
   -6.7731  -14.5796  -37.8332 N   0  0  0  0  0  0  0  0  0  0  0  0
   -5.5903  -15.1995  -37.7705 C   0  0  0  0  0  0  0  0  0  0  0  0
   -5.4446  -16.5385  -38.2507 N   0  0  0  0  0  0  0  0  0  0  0  0
   -6.1693  -17.6338  -37.6689 C   0  0  0  0  0  0  0  0  0  0  0  0
   -5.9529  -18.9409  -38.1201 C   0  0  0  0  0  0  0  0  0  0  0  0
   -6.6852  -19.9540  -37.5377 C   0  0  0  0  0  0  0  0  0  0  0  0
   -7.6122  -19.7565  -36.5426 C   0  0  0  0  0  0  0  0  0  0  0  0
   -7.8233  -18.4480  -36.0966 C   0  0  0  0  0  0  0  0  0  0  0  0
   -7.0977  -17.4220  -36.6700 C   0  0  0  0  0  0  0  0  0  0  0  0
   -8.8548  -18.4346  -35.0307 C   0  0  0  0  0  0  0  0  0  0  0  0
   -9.2360  -19.8787  -34.8859 C   0  0  0  0  0  0  0  0  0  0  0  0
  -10.1014  -20.2638  -34.0584 O   0  0  0  0  0  0  0  0  0  0  0  0
   -8.4667  -20.6160  -35.8090 N   0  0  0  0  0  0  0  0  0  0  0  0
   -4.5686  -14.5009  -37.2551 N   0  0  0  0  0  0  0  0  0  0  0  0
   -4.6958  -13.2467  -36.8185 C   0  0  0  0  0  0  0  0  0  0  0  0
   -5.9503  -12.6322  -36.9015 C   0  0  0  0  0  0  0  0  0  0  0  0
   -6.0236  -11.2573  -36.4125 C   0  0  0  0  0  0  0  0  0  0  0  0
   -6.8127  -11.0122  -35.3513 F   0  0  0  0  0  0  0  0  0  0  0  0
   -6.3595  -10.4554  -37.5210 F   0  0  0  0  0  0  0  0  0  0  0  0
   -4.7488  -10.7917  -36.0673 F   0  0  0  0  0  0  0  0  0  0  0  0
  -11.8437  -12.2679  -34.3903 S   0  0  0  0  0  0  0  0  0  0  0  0
  -12.5935  -10.8327  -33.5949 C   0  0  0  0  0  0  0  0  0  0  0  0
  -12.5036  -12.5745  -35.6672 O   0  0  0  0  0  0  0  0  0  0  0  0
  -11.9216  -13.3879  -33.3853 O   0  0  0  0  0  0  0  0  0  0  0  0
  1  2  1  0
  2  3  1  0
  3  4  2  0
  4  5  1  0
  5  6  2  0
  6  7  1  0
  7  8  2  0
  8  9  1  0
  9 10  1  0
 10 11  1  0
 11 12  2  0
 12 13  1  0
 13 14  1  0
 14 15  1  0
 15 16  2  0
 16 17  1  0
 17 18  2  0
 18 19  1  0
 19 20  2  0
 19 21  1  0
 21 22  1  0
 22 23  2  0
 22 24  1  0
 13 25  2  0
 25 26  1  0
 26 27  2  0
 27 28  1  0
 28 29  1  0
 28 30  1  0
 28 31  1  0
  2 32  1  0
 32 33  1  0
 32 34  2  0
 32 35  2  0
  8  3  1  0
 27 11  1  0
 20 15  1  0
 24 18  1  0
M  END
>  <shape_align_shape_tanimoto>  (3) 
0.63534846462517147

>  <shape_align_color_tanimoto>  (3) 
0.042771611354985424

>  <metric>  (3) 
combo

>  <metric_score>  (3) 
0.339

>  <template_pid>  (3) 
5TOB

>  <template_shape_score>  (3) 
0.635

>  <template_color_score>  (3) 
0.043

>  <template_combo_score>  (3) 
0.339

$$$$
