1XR9_shape_pose
     RDKit          3D

 64 66  0  0  0  0  0  0  0  0999 V2000
    6.6097   -6.5514   16.2824 C   0  0  0  0  0  0  0  0  0  0  0  0
    7.2975   -6.0339   15.0201 C   0  0  0  0  0  0  0  0  0  0  0  0
    6.7738   -6.6581   13.7777 C   0  0  2  0  0  0  0  0  0  0  0  0
    7.5407   -6.0625   12.5879 C   0  0  0  0  0  0  0  0  0  0  0  0
    5.3026   -6.5985   13.5538 C   0  0  2  0  0  0  0  0  0  0  0  0
    4.9836   -7.3118   12.2687 N   0  0  0  0  0  0  0  0  0  0  0  0
    4.7238   -5.2639   13.3337 C   0  0  0  0  0  0  0  0  0  0  0  0
    4.2266   -5.0481   12.1821 O   0  0  0  0  0  0  0  0  0  0  0  0
    4.6465   -4.1885   14.2477 N   0  0  0  0  0  0  0  0  0  0  0  0
    3.9958   -2.9851   13.7944 C   0  0  1  0  0  0  0  0  0  0  0  0
    4.7466   -2.0037   13.0153 C   0  0  0  0  0  0  0  0  0  0  0  0
    5.9264   -1.3499   13.6439 C   0  0  0  0  0  0  0  0  0  0  0  0
    6.5437   -0.3503   12.6402 C   0  0  0  0  0  0  0  0  0  0  0  0
    7.0163   -2.2534   14.0957 C   0  0  0  0  0  0  0  0  0  0  0  0
    2.6480   -3.2744   13.1821 C   0  0  0  0  0  0  0  0  0  0  0  0
    2.1453   -2.4117   12.4273 O   0  0  0  0  0  0  0  0  0  0  0  0
    1.9623   -4.5163   13.4703 N   0  0  0  0  0  0  0  0  0  0  0  0
    0.6994   -4.6906   12.8208 C   0  0  0  0  0  0  0  0  0  0  0  0
   -0.0718   -5.8892   13.0721 C   0  0  0  0  0  0  0  0  0  0  0  0
   -1.2136   -5.9140   12.4156 O   0  0  0  0  0  0  0  0  0  0  0  0
    0.2051   -7.0043   13.8955 N   0  0  0  0  0  0  0  0  0  0  0  0
    1.3859   -7.3462   14.6706 C   0  0  0  0  0  0  0  0  0  0  0  0
    1.1959   -8.7846   15.1463 C   0  0  0  0  0  0  0  0  0  0  0  0
   -0.3008   -9.0000   15.1189 C   0  0  0  0  0  0  0  0  0  0  0  0
   -0.8308   -8.0391   14.1164 C   0  0  1  0  0  0  0  0  0  0  0  0
   -2.0968   -7.3729   14.5329 C   0  0  0  0  0  0  0  0  0  0  0  0
   -2.0358   -6.1271   14.8118 O   0  0  0  0  0  0  0  0  0  0  0  0
   -3.3440   -8.0883   14.6156 N   0  0  0  0  0  0  0  0  0  0  0  0
   -3.5781   -9.4907   14.3828 C   0  0  0  0  0  0  0  0  0  0  0  0
   -5.0771   -9.6696   14.6677 C   0  0  0  0  0  0  0  0  0  0  0  0
   -5.6689   -8.2968   14.4076 C   0  0  0  0  0  0  0  0  0  0  0  0
   -4.5696   -7.3819   14.9217 C   0  0  1  0  0  0  0  0  0  0  0  0
   -4.7609   -7.0101   16.3133 C   0  0  0  0  0  0  0  0  0  0  0  0
   -5.4272   -5.9441   16.5589 O   0  0  0  0  0  0  0  0  0  0  0  0
   -4.2904   -7.7039   17.4645 N   0  0  0  0  0  0  0  0  0  0  0  0
   -4.6483   -7.0339   18.7340 C   0  0  0  0  0  0  0  0  0  0  0  0
   -3.8908   -5.7190   18.6865 C   0  0  0  0  0  0  0  0  0  0  0  0
   -3.1188   -5.6219   17.6909 O   0  0  0  0  0  0  0  0  0  0  0  0
   -4.0530   -4.7201   19.6706 N   0  0  0  0  0  0  0  0  0  0  0  0
   -3.3438   -3.4666   19.7015 C   0  0  1  0  0  0  0  0  0  0  0  0
   -3.4410   -2.8372   18.2596 C   0  0  0  0  0  0  0  0  0  0  0  0
   -2.7767   -1.6003   18.3191 O   0  0  0  0  0  0  0  0  0  0  0  0
   -3.8795   -2.4577   20.6317 C   0  0  0  0  0  0  0  0  0  0  0  0
   -3.0801   -1.6173   21.0802 O   0  0  0  0  0  0  0  0  0  0  0  0
   -5.2351   -2.4859   20.9504 N   0  0  0  0  0  0  0  0  0  0  0  0
   -6.0696   -1.7073   21.7780 C   0  0  2  0  0  0  0  0  0  0  0  0
   -7.4684   -1.9062   21.4567 C   0  0  0  0  0  0  0  0  0  0  0  0
   -8.3527   -1.4603   22.2261 O   0  0  0  0  0  0  0  0  0  0  0  0
   -7.9704   -2.5865   20.2928 N   0  0  0  0  0  0  0  0  0  0  0  0
   -9.4057   -2.7236   20.0502 C   0  0  1  0  0  0  0  0  0  0  0  0
   -9.6549   -2.3974   18.5894 C   0  0  0  0  0  0  0  0  0  0  0  0
   -9.2453   -1.0479   18.1825 C   0  0  0  0  0  0  0  0  0  0  0  0
   -7.9590   -0.7647   17.7225 C   0  0  0  0  0  0  0  0  0  0  0  0
   -7.6020    0.5302   17.3240 C   0  0  0  0  0  0  0  0  0  0  0  0
   -8.4999    1.5493   17.3714 C   0  0  0  0  0  0  0  0  0  0  0  0
   -8.1041    2.8262   16.9628 O   0  0  0  0  0  0  0  0  0  0  0  0
   -9.7804    1.2958   17.8206 C   0  0  0  0  0  0  0  0  0  0  0  0
  -10.1172    0.0319   18.2090 C   0  0  0  0  0  0  0  0  0  0  0  0
   -9.8253   -4.1658   20.2278 C   0  0  0  0  0  0  0  0  0  0  0  0
   -9.9236   -4.5700   21.3958 O   0  0  0  0  0  0  0  0  0  0  0  0
  -10.0834   -4.9785   19.1092 O   0  0  0  0  0  0  0  0  0  0  0  0
   -5.7886   -0.2088   21.8393 C   0  0  0  0  0  0  0  0  0  0  0  0
   -6.9105    0.3614   22.7533 C   0  0  0  0  0  0  0  0  0  0  0  0
   -4.5411    0.1667   22.5946 C   0  0  0  0  0  0  0  0  0  0  0  0
  1  2  1  0
  2  3  1  0
  3  4  1  6
  3  5  1  0
  5  6  1  6
  5  7  1  0
  7  8  2  0
  7  9  1  0
  9 10  1  0
 10 11  1  6
 11 12  1  0
 12 13  1  0
 12 14  1  0
 10 15  1  0
 15 16  2  0
 15 17  1  0
 17 18  1  0
 18 19  1  0
 19 20  2  0
 19 21  1  0
 21 22  1  0
 22 23  1  0
 23 24  1  0
 24 25  1  0
 25 26  1  1
 26 27  2  0
 26 28  1  0
 28 29  1  0
 29 30  1  0
 30 31  1  0
 31 32  1  0
 32 33  1  1
 33 34  2  0
 33 35  1  0
 35 36  1  0
 36 37  1  0
 37 38  2  0
 37 39  1  0
 39 40  1  0
 40 41  1  6
 41 42  1  0
 40 43  1  0
 43 44  2  0
 43 45  1  0
 46 45  1  6
 46 47  1  0
 47 48  2  0
 47 49  1  0
 49 50  1  0
 50 51  1  6
 51 52  1  0
 52 53  2  0
 53 54  1  0
 54 55  2  0
 55 56  1  0
 55 57  1  0
 57 58  2  0
 50 59  1  0
 59 60  2  0
 59 61  1  0
 46 62  1  0
 62 63  1  0
 62 64  1  0
 25 21  1  0
 32 28  1  0
 58 52  1  0
M  CHG  2   6   1  61  -1
M  END
>  <shape_align_shape_tanimoto>  (1) 
0.38821622254028321

>  <shape_align_color_tanimoto>  (1) 
0.010122072487842334

>  <metric>  (1) 
shape

>  <metric_score>  (1) 
0.388

>  <template_pid>  (1) 
1XR9

>  <template_shape_score>  (1) 
0.388

>  <template_color_score>  (1) 
0.010

>  <template_combo_score>  (1) 
0.199

$$$$
1XR9_color_pose
     RDKit          3D

 64 66  0  0  0  0  0  0  0  0999 V2000
    3.0418   -2.2824   13.5284 C   0  0  0  0  0  0  0  0  0  0  0  0
    2.3136   -2.5830   14.7903 C   0  0  0  0  0  0  0  0  0  0  0  0
    2.7926   -3.7710   15.5525 C   0  0  2  0  0  0  0  0  0  0  0  0
    4.2498   -3.6655   15.9602 C   0  0  0  0  0  0  0  0  0  0  0  0
    2.5260   -5.0932   14.9527 C   0  0  2  0  0  0  0  0  0  0  0  0
    3.0898   -5.3553   13.6615 N   0  0  0  0  0  0  0  0  0  0  0  0
    1.0417   -5.3331   14.9473 C   0  0  0  0  0  0  0  0  0  0  0  0
    0.3908   -5.1068   16.0189 O   0  0  0  0  0  0  0  0  0  0  0  0
    0.3497   -5.8006   13.8004 N   0  0  0  0  0  0  0  0  0  0  0  0
   -1.1326   -6.0230   13.8821 C   0  0  1  0  0  0  0  0  0  0  0  0
   -1.7698   -5.2004   12.8084 C   0  0  0  0  0  0  0  0  0  0  0  0
   -3.2555   -5.3417   12.7859 C   0  0  0  0  0  0  0  0  0  0  0  0
   -3.7457   -4.4395   11.6318 C   0  0  0  0  0  0  0  0  0  0  0  0
   -3.9525   -4.9300   14.0532 C   0  0  0  0  0  0  0  0  0  0  0  0
   -1.3688   -7.4584   13.7060 C   0  0  0  0  0  0  0  0  0  0  0  0
   -0.4081   -8.1460   13.2441 O   0  0  0  0  0  0  0  0  0  0  0  0
   -2.5584   -8.1974   13.9990 N   0  0  0  0  0  0  0  0  0  0  0  0
   -2.4688   -9.5992   13.7143 C   0  0  0  0  0  0  0  0  0  0  0  0
   -3.5569  -10.4499   14.0176 C   0  0  0  0  0  0  0  0  0  0  0  0
   -3.3454  -11.7102   13.6175 O   0  0  0  0  0  0  0  0  0  0  0  0
   -4.8370  -10.3937   14.6261 N   0  0  0  0  0  0  0  0  0  0  0  0
   -5.5934  -11.7160   14.4965 C   0  0  0  0  0  0  0  0  0  0  0  0
   -6.9554  -11.3254   15.0067 C   0  0  0  0  0  0  0  0  0  0  0  0
   -6.6357  -10.3319   16.0995 C   0  0  0  0  0  0  0  0  0  0  0  0
   -5.6099   -9.4535   15.3388 C   0  0  1  0  0  0  0  0  0  0  0  0
   -4.8878   -8.6670   16.4091 C   0  0  0  0  0  0  0  0  0  0  0  0
   -3.7271   -9.0127   16.7216 O   0  0  0  0  0  0  0  0  0  0  0  0
   -5.6155   -7.6019   16.9642 N   0  0  0  0  0  0  0  0  0  0  0  0
   -6.9656   -7.0956   16.6118 C   0  0  0  0  0  0  0  0  0  0  0  0
   -7.6353   -7.1492   17.9989 C   0  0  0  0  0  0  0  0  0  0  0  0
   -6.4487   -7.2342   19.0012 C   0  0  0  0  0  0  0  0  0  0  0  0
   -5.3442   -6.7209   18.1204 C   0  0  1  0  0  0  0  0  0  0  0  0
   -4.0130   -6.6251   18.5768 C   0  0  0  0  0  0  0  0  0  0  0  0
   -3.0441   -6.7470   17.7363 O   0  0  0  0  0  0  0  0  0  0  0  0
   -3.5433   -6.3970   19.9243 N   0  0  0  0  0  0  0  0  0  0  0  0
   -2.0712   -6.3243   19.9972 C   0  0  0  0  0  0  0  0  0  0  0  0
   -1.6959   -5.0646   19.2277 C   0  0  0  0  0  0  0  0  0  0  0  0
   -0.4695   -4.8405   18.9862 O   0  0  0  0  0  0  0  0  0  0  0  0
   -2.6720   -4.1438   18.7869 N   0  0  0  0  0  0  0  0  0  0  0  0
   -2.4398   -2.9425   18.0310 C   0  0  1  0  0  0  0  0  0  0  0  0
   -3.6191   -2.5262   17.2242 C   0  0  0  0  0  0  0  0  0  0  0  0
   -4.7357   -2.2454   18.0168 O   0  0  0  0  0  0  0  0  0  0  0  0
   -1.9328   -1.8024   18.9208 C   0  0  0  0  0  0  0  0  0  0  0  0
   -1.7283   -1.9890   20.1336 O   0  0  0  0  0  0  0  0  0  0  0  0
   -1.7287   -0.5823   18.2446 N   0  0  0  0  0  0  0  0  0  0  0  0
   -1.2486    0.6634   18.7222 C   0  0  2  0  0  0  0  0  0  0  0  0
   -2.4016    1.5296   19.1591 C   0  0  0  0  0  0  0  0  0  0  0  0
   -2.1401    2.7763   19.0678 O   0  0  0  0  0  0  0  0  0  0  0  0
   -3.6258    1.0206   19.6209 N   0  0  0  0  0  0  0  0  0  0  0  0
   -4.7919    1.7020   20.0389 C   0  0  1  0  0  0  0  0  0  0  0  0
   -5.4738    1.0692   21.2088 C   0  0  0  0  0  0  0  0  0  0  0  0
   -5.9371   -0.3015   21.0862 C   0  0  0  0  0  0  0  0  0  0  0  0
   -5.0852   -1.3256   21.4215 C   0  0  0  0  0  0  0  0  0  0  0  0
   -5.4221   -2.6569   21.3863 C   0  0  0  0  0  0  0  0  0  0  0  0
   -6.7222   -2.9390   20.9784 C   0  0  0  0  0  0  0  0  0  0  0  0
   -7.0906   -4.2682   20.9370 O   0  0  0  0  0  0  0  0  0  0  0  0
   -7.6056   -1.9425   20.6324 C   0  0  0  0  0  0  0  0  0  0  0  0
   -7.2359   -0.6245   20.6788 C   0  0  0  0  0  0  0  0  0  0  0  0
   -4.3082    3.0903   20.5691 C   0  0  0  0  0  0  0  0  0  0  0  0
   -4.1320    3.2509   21.7928 O   0  0  0  0  0  0  0  0  0  0  0  0
   -4.0902    4.1162   19.6764 O   0  0  0  0  0  0  0  0  0  0  0  0
   -0.3120    1.3731   17.8000 C   0  0  0  0  0  0  0  0  0  0  0  0
    0.9053    0.4975   17.5524 C   0  0  0  0  0  0  0  0  0  0  0  0
    0.1899    2.6869   18.3532 C   0  0  0  0  0  0  0  0  0  0  0  0
  1  2  1  0
  2  3  1  0
  3  4  1  6
  3  5  1  0
  5  6  1  6
  5  7  1  0
  7  8  2  0
  7  9  1  0
  9 10  1  0
 10 11  1  6
 11 12  1  0
 12 13  1  0
 12 14  1  0
 10 15  1  0
 15 16  2  0
 15 17  1  0
 17 18  1  0
 18 19  1  0
 19 20  2  0
 19 21  1  0
 21 22  1  0
 22 23  1  0
 23 24  1  0
 24 25  1  0
 25 26  1  1
 26 27  2  0
 26 28  1  0
 28 29  1  0
 29 30  1  0
 30 31  1  0
 31 32  1  0
 32 33  1  1
 33 34  2  0
 33 35  1  0
 35 36  1  0
 36 37  1  0
 37 38  2  0
 37 39  1  0
 39 40  1  0
 40 41  1  1
 41 42  1  0
 40 43  1  0
 43 44  2  0
 43 45  1  0
 46 45  1  6
 46 47  1  0
 47 48  2  0
 47 49  1  0
 49 50  1  0
 50 51  1  1
 51 52  1  0
 52 53  2  0
 53 54  1  0
 54 55  2  0
 55 56  1  0
 55 57  1  0
 57 58  2  0
 50 59  1  0
 59 60  2  0
 59 61  1  0
 46 62  1  0
 62 63  1  0
 62 64  1  0
 25 21  1  0
 32 28  1  0
 58 52  1  0
M  CHG  2   6   1  61  -1
M  END
>  <shape_align_shape_tanimoto>  (2) 
0.26506117435186205

>  <shape_align_color_tanimoto>  (2) 
0.066710288486232741

>  <metric>  (2) 
color

>  <metric_score>  (2) 
0.067

>  <template_pid>  (2) 
1XR9

>  <template_shape_score>  (2) 
0.265

>  <template_color_score>  (2) 
0.067

>  <template_combo_score>  (2) 
0.166

$$$$
1XR9_combo_pose
     RDKit          3D

 64 66  0  0  0  0  0  0  0  0999 V2000
    9.2382   -3.3155   12.5439 C   0  0  0  0  0  0  0  0  0  0  0  0
    8.0308   -2.6976   11.9076 C   0  0  0  0  0  0  0  0  0  0  0  0
    7.3128   -1.7174   12.7622 C   0  0  2  0  0  0  0  0  0  0  0  0
    8.1784   -0.5579   13.1784 C   0  0  0  0  0  0  0  0  0  0  0  0
    6.5752   -2.2737   13.9293 C   0  0  2  0  0  0  0  0  0  0  0  0
    7.3408   -2.9743   14.8865 N   0  0  0  0  0  0  0  0  0  0  0  0
    5.4646   -3.1374   13.4426 C   0  0  0  0  0  0  0  0  0  0  0  0
    4.8510   -2.6755   12.4243 O   0  0  0  0  0  0  0  0  0  0  0  0
    5.0813   -4.3484   14.0033 N   0  0  0  0  0  0  0  0  0  0  0  0
    3.9470   -5.0496   13.3365 C   0  0  1  0  0  0  0  0  0  0  0  0
    4.4531   -6.3632   12.9104 C   0  0  0  0  0  0  0  0  0  0  0  0
    3.5974   -7.3579   12.2390 C   0  0  0  0  0  0  0  0  0  0  0  0
    2.4721   -7.8753   13.0703 C   0  0  0  0  0  0  0  0  0  0  0  0
    4.5057   -8.5331   11.8729 C   0  0  0  0  0  0  0  0  0  0  0  0
    2.8413   -5.0505   14.2740 C   0  0  0  0  0  0  0  0  0  0  0  0
    3.0024   -4.9281   15.5240 O   0  0  0  0  0  0  0  0  0  0  0  0
    1.4811   -5.1859   13.7550 N   0  0  0  0  0  0  0  0  0  0  0  0
    0.4398   -5.1751   14.6953 C   0  0  0  0  0  0  0  0  0  0  0  0
   -0.9473   -5.2899   14.2602 C   0  0  0  0  0  0  0  0  0  0  0  0
   -1.8023   -5.2964   15.2383 O   0  0  0  0  0  0  0  0  0  0  0  0
   -1.4765   -5.3944   12.9668 N   0  0  0  0  0  0  0  0  0  0  0  0
   -0.8498   -5.3523   11.6705 C   0  0  0  0  0  0  0  0  0  0  0  0
   -1.8624   -5.1553   10.6126 C   0  0  0  0  0  0  0  0  0  0  0  0
   -3.1451   -5.5349   11.2724 C   0  0  0  0  0  0  0  0  0  0  0  0
   -2.9114   -5.6197   12.7236 C   0  0  1  0  0  0  0  0  0  0  0  0
   -3.3940   -6.8550   13.3530 C   0  0  0  0  0  0  0  0  0  0  0  0
   -2.6093   -7.4832   14.1178 O   0  0  0  0  0  0  0  0  0  0  0  0
   -4.6676   -7.4048   13.1711 N   0  0  0  0  0  0  0  0  0  0  0  0
   -5.8056   -6.9454   12.3634 C   0  0  0  0  0  0  0  0  0  0  0  0
   -6.0519   -8.2423   11.5763 C   0  0  0  0  0  0  0  0  0  0  0  0
   -5.4346   -9.3718   12.4250 C   0  0  0  0  0  0  0  0  0  0  0  0
   -5.2250   -8.6635   13.6986 C   0  0  1  0  0  0  0  0  0  0  0  0
   -4.5629   -9.2725   14.7953 C   0  0  0  0  0  0  0  0  0  0  0  0
   -4.2171  -10.4863   14.7381 O   0  0  0  0  0  0  0  0  0  0  0  0
   -4.2954   -8.5031   15.9751 N   0  0  0  0  0  0  0  0  0  0  0  0
   -3.6370   -9.1885   17.0483 C   0  0  0  0  0  0  0  0  0  0  0  0
   -3.4581   -8.3876   18.2728 C   0  0  0  0  0  0  0  0  0  0  0  0
   -2.8852   -8.9708   19.2380 O   0  0  0  0  0  0  0  0  0  0  0  0
   -3.8592   -7.0710   18.4593 N   0  0  0  0  0  0  0  0  0  0  0  0
   -3.6969   -6.2944   19.6692 C   0  0  1  0  0  0  0  0  0  0  0  0
   -2.5981   -5.2774   19.3571 C   0  0  0  0  0  0  0  0  0  0  0  0
   -2.3200   -4.4585   20.4348 O   0  0  0  0  0  0  0  0  0  0  0  0
   -4.9923   -5.6341   19.9281 C   0  0  0  0  0  0  0  0  0  0  0  0
   -5.9174   -5.9252   19.0908 O   0  0  0  0  0  0  0  0  0  0  0  0
   -5.2921   -4.7544   20.9592 N   0  0  0  0  0  0  0  0  0  0  0  0
   -6.6542   -4.2179   21.0135 C   0  0  2  0  0  0  0  0  0  0  0  0
   -6.5793   -2.8307   20.4754 C   0  0  0  0  0  0  0  0  0  0  0  0
   -7.5955   -2.1253   20.2747 O   0  0  0  0  0  0  0  0  0  0  0  0
   -5.3264   -2.2302   20.1586 N   0  0  0  0  0  0  0  0  0  0  0  0
   -5.1762   -0.9179   19.6281 C   0  0  1  0  0  0  0  0  0  0  0  0
   -4.7152    0.0781   20.6840 C   0  0  0  0  0  0  0  0  0  0  0  0
   -5.7062    0.1711   21.7702 C   0  0  0  0  0  0  0  0  0  0  0  0
   -5.7282   -0.5678   22.8999 C   0  0  0  0  0  0  0  0  0  0  0  0
   -6.7358   -0.3687   23.8406 C   0  0  0  0  0  0  0  0  0  0  0  0
   -7.7284    0.5703   23.6578 C   0  0  0  0  0  0  0  0  0  0  0  0
   -8.7341    0.7853   24.5726 O   0  0  0  0  0  0  0  0  0  0  0  0
   -7.7090    1.3308   22.4984 C   0  0  0  0  0  0  0  0  0  0  0  0
   -6.7148    1.1186   21.5944 C   0  0  0  0  0  0  0  0  0  0  0  0
   -4.2396   -0.9336   18.5049 C   0  0  0  0  0  0  0  0  0  0  0  0
   -3.0437   -0.5291   18.6146 O   0  0  0  0  0  0  0  0  0  0  0  0
   -4.6424   -1.4000   17.2652 O   0  0  0  0  0  0  0  0  0  0  0  0
   -7.2626   -4.2653   22.3661 C   0  0  0  0  0  0  0  0  0  0  0  0
   -8.6569   -3.6891   22.3215 C   0  0  0  0  0  0  0  0  0  0  0  0
   -7.3867   -5.7140   22.7908 C   0  0  0  0  0  0  0  0  0  0  0  0
  1  2  1  0
  2  3  1  0
  3  4  1  1
  3  5  1  0
  5  6  1  1
  5  7  1  0
  7  8  2  0
  7  9  1  0
  9 10  1  0
 10 11  1  1
 11 12  1  0
 12 13  1  0
 12 14  1  0
 10 15  1  0
 15 16  2  0
 15 17  1  0
 17 18  1  0
 18 19  1  0
 19 20  2  0
 19 21  1  0
 21 22  1  0
 22 23  1  0
 23 24  1  0
 24 25  1  0
 25 26  1  6
 26 27  2  0
 26 28  1  0
 28 29  1  0
 29 30  1  0
 30 31  1  0
 31 32  1  0
 32 33  1  1
 33 34  2  0
 33 35  1  0
 35 36  1  0
 36 37  1  0
 37 38  2  0
 37 39  1  0
 39 40  1  0
 40 41  1  6
 41 42  1  0
 40 43  1  0
 43 44  2  0
 43 45  1  0
 46 45  1  1
 46 47  1  0
 47 48  2  0
 47 49  1  0
 49 50  1  0
 50 51  1  1
 51 52  1  0
 52 53  2  0
 53 54  1  0
 54 55  2  0
 55 56  1  0
 55 57  1  0
 57 58  2  0
 50 59  1  0
 59 60  2  0
 59 61  1  0
 46 62  1  0
 62 63  1  0
 62 64  1  0
 25 21  1  0
 32 28  1  0
 58 52  1  0
M  CHG  2   6   1  61  -1
M  END
>  <shape_align_shape_tanimoto>  (3) 
0.36863061512996126

>  <shape_align_color_tanimoto>  (3) 
0.03316406686825344

>  <metric>  (3) 
combo

>  <metric_score>  (3) 
0.201

>  <template_pid>  (3) 
1XR9

>  <template_shape_score>  (3) 
0.369

>  <template_color_score>  (3) 
0.033

>  <template_combo_score>  (3) 
0.201

$$$$
