3IQH_shape_pose
     RDKit          3D

 29 29  0  0  0  0  0  0  0  0999 V2000
  -33.6053  -14.6255   24.6467 C   0  0  0  0  0  0  0  0  0  0  0  0
  -33.2425  -15.5905   23.5132 C   0  0  0  0  0  0  0  0  0  0  0  0
  -33.3128  -17.0238   24.0364 C   0  0  2  0  0  0  0  0  0  0  0  0
  -32.9484  -17.9665   22.8948 C   0  0  0  0  0  0  0  0  0  0  0  0
  -34.6590  -17.3640   24.5863 C   0  0  2  0  0  0  0  0  0  0  0  0
  -34.7155  -18.7453   25.0880 N   0  0  0  0  0  0  0  0  0  0  0  0
  -35.0038  -19.0105   26.4323 C   0  0  0  0  0  0  0  0  0  0  0  0
  -35.2273  -17.9891   27.1759 O   0  0  0  0  0  0  0  0  0  0  0  0
  -35.0859  -20.3217   27.0851 C   0  0  2  0  0  0  0  0  0  0  0  0
  -34.9232  -20.1887   28.5575 C   0  0  0  0  0  0  0  0  0  0  0  0
  -33.6528  -19.5927   29.0135 C   0  0  0  0  0  0  0  0  0  0  0  0
  -33.4432  -19.5052   30.2689 O   0  0  0  0  0  0  0  0  0  0  0  0
  -32.6558  -19.1135   28.1869 O   0  0  0  0  0  0  0  0  0  0  0  0
  -34.5063  -21.4425   26.4529 N   0  0  0  0  0  0  0  0  0  0  0  0
  -33.3076  -21.5190   25.7093 C   0  0  0  0  0  0  0  0  0  0  0  0
  -32.5266  -20.5598   25.4950 O   0  0  0  0  0  0  0  0  0  0  0  0
  -32.8996  -22.8286   25.1124 C   0  0  1  0  0  0  0  0  0  0  0  0
  -31.6461  -22.5760   24.4149 N   0  0  0  0  0  0  0  0  0  0  0  0
  -32.5893  -23.8291   26.2059 C   0  0  0  0  0  0  0  0  0  0  0  0
  -32.1836  -25.1288   25.6259 C   0  0  0  0  0  0  0  0  0  0  0  0
  -30.8385  -25.3333   25.3731 C   0  0  0  0  0  0  0  0  0  0  0  0
  -30.3682  -26.5119   24.8342 C   0  0  0  0  0  0  0  0  0  0  0  0
  -31.2965  -27.4979   24.5502 C   0  0  0  0  0  0  0  0  0  0  0  0
  -30.8574  -28.7158   23.9994 O   0  0  0  0  0  0  0  0  0  0  0  0
  -32.6588  -27.3048   24.8006 C   0  0  0  0  0  0  0  0  0  0  0  0
  -33.1070  -26.1132   25.3419 C   0  0  0  0  0  0  0  0  0  0  0  0
  -35.7502  -17.1327   23.5960 C   0  0  0  0  0  0  0  0  0  0  0  0
  -36.9439  -17.0632   24.0126 O   0  0  0  0  0  0  0  0  0  0  0  0
  -35.5118  -16.9904   22.2359 O   0  0  0  0  0  0  0  0  0  0  0  0
  1  2  1  0
  2  3  1  0
  3  4  1  6
  3  5  1  0
  5  6  1  6
  6  7  1  0
  7  8  2  0
  7  9  1  0
  9 10  1  1
 10 11  1  0
 11 12  2  0
 11 13  1  0
  9 14  1  0
 14 15  1  0
 15 16  2  0
 15 17  1  0
 17 18  1  1
 17 19  1  0
 19 20  1  0
 20 21  2  0
 21 22  1  0
 22 23  2  0
 23 24  1  0
 23 25  1  0
 25 26  2  0
  5 27  1  0
 27 28  2  0
 27 29  1  0
 26 20  1  0
M  CHG  3  13  -1  18   1  29  -1
M  END
>  <shape_align_shape_tanimoto>  (1) 
0.70797585362626669

>  <shape_align_color_tanimoto>  (1) 
0.062098107431191894

>  <metric>  (1) 
shape

>  <metric_score>  (1) 
0.708

>  <template_pid>  (1) 
3IQH

>  <template_shape_score>  (1) 
0.708

>  <template_color_score>  (1) 
0.062

>  <template_combo_score>  (1) 
0.385

$$$$
3IQH_color_pose
     RDKit          3D

 29 29  0  0  0  0  0  0  0  0999 V2000
  -34.1601  -26.6083   26.3183 C   0  0  0  0  0  0  0  0  0  0  0  0
  -33.6138  -26.5809   24.9325 C   0  0  0  0  0  0  0  0  0  0  0  0
  -32.1592  -26.8990   24.8054 C   0  0  2  0  0  0  0  0  0  0  0  0
  -31.8011  -28.2650   25.3148 C   0  0  0  0  0  0  0  0  0  0  0  0
  -31.3360  -25.8073   25.4135 C   0  0  2  0  0  0  0  0  0  0  0  0
  -31.6306  -24.5709   24.6941 N   0  0  0  0  0  0  0  0  0  0  0  0
  -32.2336  -23.4818   25.2944 C   0  0  0  0  0  0  0  0  0  0  0  0
  -32.5181  -23.6241   26.5496 O   0  0  0  0  0  0  0  0  0  0  0  0
  -32.6097  -22.1733   24.7485 C   0  0  2  0  0  0  0  0  0  0  0  0
  -31.7746  -21.5462   23.7128 C   0  0  0  0  0  0  0  0  0  0  0  0
  -31.7550  -22.3034   22.4553 C   0  0  0  0  0  0  0  0  0  0  0  0
  -32.6222  -23.1380   22.0858 O   0  0  0  0  0  0  0  0  0  0  0  0
  -30.6679  -22.0738   21.5900 O   0  0  0  0  0  0  0  0  0  0  0  0
  -33.0790  -21.2720   25.7942 N   0  0  0  0  0  0  0  0  0  0  0  0
  -34.4585  -20.8935   25.9043 C   0  0  0  0  0  0  0  0  0  0  0  0
  -35.3115  -21.3342   25.0896 O   0  0  0  0  0  0  0  0  0  0  0  0
  -34.9124  -19.9729   26.9816 C   0  0  1  0  0  0  0  0  0  0  0  0
  -33.8397  -19.6215   27.8801 N   0  0  0  0  0  0  0  0  0  0  0  0
  -35.6945  -18.8398   26.4555 C   0  0  0  0  0  0  0  0  0  0  0  0
  -35.0549  -17.9425   25.5041 C   0  0  0  0  0  0  0  0  0  0  0  0
  -34.3758  -16.8317   26.0134 C   0  0  0  0  0  0  0  0  0  0  0  0
  -33.7518  -15.9550   25.1743 C   0  0  0  0  0  0  0  0  0  0  0  0
  -33.7459  -16.0955   23.8151 C   0  0  0  0  0  0  0  0  0  0  0  0
  -33.0961  -15.1754   23.0009 O   0  0  0  0  0  0  0  0  0  0  0  0
  -34.4201  -17.2012   23.2885 C   0  0  0  0  0  0  0  0  0  0  0  0
  -35.0634  -18.1077   24.1265 C   0  0  0  0  0  0  0  0  0  0  0  0
  -29.8815  -26.1035   25.3696 C   0  0  0  0  0  0  0  0  0  0  0  0
  -29.1242  -25.3684   26.0560 O   0  0  0  0  0  0  0  0  0  0  0  0
  -29.3086  -27.1114   24.6417 O   0  0  0  0  0  0  0  0  0  0  0  0
  1  2  1  0
  2  3  1  0
  3  4  1  1
  3  5  1  0
  5  6  1  6
  6  7  1  0
  7  8  2  0
  7  9  1  0
  9 10  1  1
 10 11  1  0
 11 12  2  0
 11 13  1  0
  9 14  1  0
 14 15  1  0
 15 16  2  0
 15 17  1  0
 17 18  1  6
 17 19  1  0
 19 20  1  0
 20 21  2  0
 21 22  1  0
 22 23  2  0
 23 24  1  0
 23 25  1  0
 25 26  2  0
  5 27  1  0
 27 28  2  0
 27 29  1  0
 26 20  1  0
M  CHG  3  13  -1  18   1  29  -1
M  END
>  <shape_align_shape_tanimoto>  (2) 
0.60918342846376983

>  <shape_align_color_tanimoto>  (2) 
0.09131318557248802

>  <metric>  (2) 
color

>  <metric_score>  (2) 
0.091

>  <template_pid>  (2) 
3IQH

>  <template_shape_score>  (2) 
0.609

>  <template_color_score>  (2) 
0.091

>  <template_combo_score>  (2) 
0.350

$$$$
3IQH_combo_pose
     RDKit          3D

 29 29  0  0  0  0  0  0  0  0999 V2000
  -33.6053  -14.6255   24.6467 C   0  0  0  0  0  0  0  0  0  0  0  0
  -33.2425  -15.5905   23.5132 C   0  0  0  0  0  0  0  0  0  0  0  0
  -33.3128  -17.0238   24.0364 C   0  0  2  0  0  0  0  0  0  0  0  0
  -32.9484  -17.9665   22.8948 C   0  0  0  0  0  0  0  0  0  0  0  0
  -34.6590  -17.3640   24.5863 C   0  0  2  0  0  0  0  0  0  0  0  0
  -34.7155  -18.7453   25.0880 N   0  0  0  0  0  0  0  0  0  0  0  0
  -35.0038  -19.0105   26.4323 C   0  0  0  0  0  0  0  0  0  0  0  0
  -35.2273  -17.9891   27.1759 O   0  0  0  0  0  0  0  0  0  0  0  0
  -35.0859  -20.3217   27.0851 C   0  0  2  0  0  0  0  0  0  0  0  0
  -34.9232  -20.1887   28.5575 C   0  0  0  0  0  0  0  0  0  0  0  0
  -33.6528  -19.5927   29.0135 C   0  0  0  0  0  0  0  0  0  0  0  0
  -33.4432  -19.5052   30.2689 O   0  0  0  0  0  0  0  0  0  0  0  0
  -32.6558  -19.1135   28.1869 O   0  0  0  0  0  0  0  0  0  0  0  0
  -34.5063  -21.4425   26.4529 N   0  0  0  0  0  0  0  0  0  0  0  0
  -33.3076  -21.5190   25.7093 C   0  0  0  0  0  0  0  0  0  0  0  0
  -32.5266  -20.5598   25.4950 O   0  0  0  0  0  0  0  0  0  0  0  0
  -32.8996  -22.8286   25.1124 C   0  0  1  0  0  0  0  0  0  0  0  0
  -31.6461  -22.5760   24.4149 N   0  0  0  0  0  0  0  0  0  0  0  0
  -32.5893  -23.8291   26.2059 C   0  0  0  0  0  0  0  0  0  0  0  0
  -32.1836  -25.1288   25.6259 C   0  0  0  0  0  0  0  0  0  0  0  0
  -30.8385  -25.3333   25.3731 C   0  0  0  0  0  0  0  0  0  0  0  0
  -30.3682  -26.5119   24.8342 C   0  0  0  0  0  0  0  0  0  0  0  0
  -31.2965  -27.4979   24.5502 C   0  0  0  0  0  0  0  0  0  0  0  0
  -30.8574  -28.7158   23.9994 O   0  0  0  0  0  0  0  0  0  0  0  0
  -32.6588  -27.3048   24.8006 C   0  0  0  0  0  0  0  0  0  0  0  0
  -33.1070  -26.1132   25.3419 C   0  0  0  0  0  0  0  0  0  0  0  0
  -35.7502  -17.1327   23.5960 C   0  0  0  0  0  0  0  0  0  0  0  0
  -36.9439  -17.0632   24.0126 O   0  0  0  0  0  0  0  0  0  0  0  0
  -35.5118  -16.9904   22.2359 O   0  0  0  0  0  0  0  0  0  0  0  0
  1  2  1  0
  2  3  1  0
  3  4  1  6
  3  5  1  0
  5  6  1  6
  6  7  1  0
  7  8  2  0
  7  9  1  0
  9 10  1  1
 10 11  1  0
 11 12  2  0
 11 13  1  0
  9 14  1  0
 14 15  1  0
 15 16  2  0
 15 17  1  0
 17 18  1  1
 17 19  1  0
 19 20  1  0
 20 21  2  0
 21 22  1  0
 22 23  2  0
 23 24  1  0
 23 25  1  0
 25 26  2  0
  5 27  1  0
 27 28  2  0
 27 29  1  0
 26 20  1  0
M  CHG  3  13  -1  18   1  29  -1
M  END
>  <shape_align_shape_tanimoto>  (3) 
0.70797585362626669

>  <shape_align_color_tanimoto>  (3) 
0.062098107431191894

>  <metric>  (3) 
combo

>  <metric_score>  (3) 
0.385

>  <template_pid>  (3) 
3IQH

>  <template_shape_score>  (3) 
0.708

>  <template_color_score>  (3) 
0.062

>  <template_combo_score>  (3) 
0.385

$$$$
