2WAP_shape_pose
     RDKit          3D

 26 28  0  0  0  0  0  0  0  0999 V2000
    6.6595  -10.8453   -7.4654 O   0  0  0  0  0  0  0  0  0  0  0  0
    7.8807  -10.5478   -7.5515 C   0  0  0  0  0  0  0  0  0  0  0  0
    8.4848  -10.0524   -8.7382 N   0  0  0  0  0  0  0  0  0  0  0  0
    9.9142   -9.7159   -8.8006 C   0  0  0  0  0  0  0  0  0  0  0  0
   10.1490   -8.5593   -9.7401 C   0  0  0  0  0  0  0  0  0  0  0  0
    8.9543   -7.6555   -9.8610 C   0  0  0  0  0  0  0  0  0  0  0  0
    9.2342   -6.6245  -10.9178 C   0  0  0  0  0  0  0  0  0  0  0  0
   10.4229   -5.7769  -10.6132 C   0  0  0  0  0  0  0  0  0  0  0  0
   11.6718   -6.1735  -11.0514 C   0  0  0  0  0  0  0  0  0  0  0  0
   12.7314   -5.3699  -10.7516 C   0  0  0  0  0  0  0  0  0  0  0  0
   12.5643   -4.2048  -10.0378 C   0  0  0  0  0  0  0  0  0  0  0  0
   11.3152   -3.7782   -9.5818 C   0  0  0  0  0  0  0  0  0  0  0  0
   11.2807   -2.6078   -8.8867 O   0  0  0  0  0  0  0  0  0  0  0  0
   10.1758   -2.0122   -8.3547 C   0  0  0  0  0  0  0  0  0  0  0  0
   10.3977   -0.7978   -7.6756 C   0  0  0  0  0  0  0  0  0  0  0  0
    9.3375   -0.1113   -7.0975 C   0  0  0  0  0  0  0  0  0  0  0  0
    8.0498   -0.6020   -7.1756 C   0  0  0  0  0  0  0  0  0  0  0  0
    6.9049    0.1220   -6.5616 C   0  0  0  0  0  0  0  0  0  0  0  0
    5.8358   -0.7681   -6.4954 F   0  0  0  0  0  0  0  0  0  0  0  0
    6.5434    1.1925   -7.3560 F   0  0  0  0  0  0  0  0  0  0  0  0
    7.2259    0.5351   -5.2856 F   0  0  0  0  0  0  0  0  0  0  0  0
    7.8668   -1.7965   -7.8494 C   0  0  0  0  0  0  0  0  0  0  0  0
    8.9215   -2.4270   -8.3936 N   0  0  0  0  0  0  0  0  0  0  0  0
   10.2563   -4.5904   -9.8869 C   0  0  0  0  0  0  0  0  0  0  0  0
    7.6919   -8.3637  -10.2262 C   0  0  0  0  0  0  0  0  0  0  0  0
    7.7358   -9.8454   -9.9654 C   0  0  0  0  0  0  0  0  0  0  0  0
  1  2  2  0
  2  3  1  0
  3  4  1  0
  4  5  1  0
  5  6  1  0
  6  7  1  0
  7  8  1  0
  8  9  2  0
  9 10  1  0
 10 11  2  0
 11 12  1  0
 12 13  1  0
 13 14  1  0
 14 15  2  0
 15 16  1  0
 16 17  2  0
 17 18  1  0
 18 19  1  0
 18 20  1  0
 18 21  1  0
 17 22  1  0
 22 23  2  0
 12 24  2  0
  6 25  1  0
 25 26  1  0
 26  3  1  0
 24  8  1  0
 23 14  1  0
M  END
>  <shape_align_shape_tanimoto>  (1) 
0.35980742634666413

>  <shape_align_color_tanimoto>  (1) 
0.0067975596817897981

>  <metric>  (1) 
shape

>  <metric_score>  (1) 
0.360

>  <template_pid>  (1) 
2WAP

>  <template_shape_score>  (1) 
0.360

>  <template_color_score>  (1) 
0.007

>  <template_combo_score>  (1) 
0.183

$$$$
2WAP_color_pose
     RDKit          3D

 26 28  0  0  0  0  0  0  0  0999 V2000
    8.6205   -8.4266  -14.5961 O   0  0  0  0  0  0  0  0  0  0  0  0
    8.7900   -9.2285  -13.6301 C   0  0  0  0  0  0  0  0  0  0  0  0
    8.5269   -8.8452  -12.2863 N   0  0  0  0  0  0  0  0  0  0  0  0
    8.7186   -9.7550  -11.1842 C   0  0  0  0  0  0  0  0  0  0  0  0
    9.4971   -9.1343  -10.0572 C   0  0  0  0  0  0  0  0  0  0  0  0
    9.9639   -7.7660  -10.5303 C   0  0  0  0  0  0  0  0  0  0  0  0
   10.8856   -7.2204   -9.4823 C   0  0  0  0  0  0  0  0  0  0  0  0
   11.4194   -5.8794   -9.8177 C   0  0  0  0  0  0  0  0  0  0  0  0
   12.5871   -5.8142  -10.5202 C   0  0  0  0  0  0  0  0  0  0  0  0
   13.0758   -4.5630  -10.8274 C   0  0  0  0  0  0  0  0  0  0  0  0
   12.4110   -3.4225  -10.4402 C   0  0  0  0  0  0  0  0  0  0  0  0
   11.2078   -3.4785   -9.7164 C   0  0  0  0  0  0  0  0  0  0  0  0
   10.6472   -2.2834   -9.3924 O   0  0  0  0  0  0  0  0  0  0  0  0
    9.4945   -2.0925   -8.7018 C   0  0  0  0  0  0  0  0  0  0  0  0
    9.1054   -0.7639   -8.4822 C   0  0  0  0  0  0  0  0  0  0  0  0
    7.9540   -0.4633   -7.7936 C   0  0  0  0  0  0  0  0  0  0  0  0
    7.1536   -1.4690   -7.3019 C   0  0  0  0  0  0  0  0  0  0  0  0
    5.9019   -1.2242   -6.5525 C   0  0  0  0  0  0  0  0  0  0  0  0
    5.7857    0.0955   -6.1637 F   0  0  0  0  0  0  0  0  0  0  0  0
    4.8510   -1.6108   -7.3519 F   0  0  0  0  0  0  0  0  0  0  0  0
    5.8543   -1.9818   -5.3973 F   0  0  0  0  0  0  0  0  0  0  0  0
    7.5443   -2.7699   -7.5228 C   0  0  0  0  0  0  0  0  0  0  0  0
    8.6769   -3.0176   -8.2007 N   0  0  0  0  0  0  0  0  0  0  0  0
   10.7479   -4.7259   -9.4266 C   0  0  0  0  0  0  0  0  0  0  0  0
    8.7451   -6.9391  -10.7631 C   0  0  0  0  0  0  0  0  0  0  0  0
    8.0532   -7.5106  -11.9944 C   0  0  0  0  0  0  0  0  0  0  0  0
  1  2  2  0
  2  3  1  0
  3  4  1  0
  4  5  1  0
  5  6  1  0
  6  7  1  0
  7  8  1  0
  8  9  2  0
  9 10  1  0
 10 11  2  0
 11 12  1  0
 12 13  1  0
 13 14  1  0
 14 15  2  0
 15 16  1  0
 16 17  2  0
 17 18  1  0
 18 19  1  0
 18 20  1  0
 18 21  1  0
 17 22  1  0
 22 23  2  0
 12 24  2  0
  6 25  1  0
 25 26  1  0
 26  3  1  0
 24  8  1  0
 23 14  1  0
M  END
>  <shape_align_shape_tanimoto>  (2) 
0.32436504403401489

>  <shape_align_color_tanimoto>  (2) 
0.035670511991634894

>  <metric>  (2) 
color

>  <metric_score>  (2) 
0.036

>  <template_pid>  (2) 
2WAP

>  <template_shape_score>  (2) 
0.324

>  <template_color_score>  (2) 
0.036

>  <template_combo_score>  (2) 
0.180

$$$$
2WAP_combo_pose
     RDKit          3D

 26 28  0  0  0  0  0  0  0  0999 V2000
    5.2849  -10.3693  -10.1194 O   0  0  0  0  0  0  0  0  0  0  0  0
    6.2338  -10.5998   -9.3356 C   0  0  0  0  0  0  0  0  0  0  0  0
    7.2695   -9.6289   -9.2249 N   0  0  0  0  0  0  0  0  0  0  0  0
    7.1836   -8.4189  -10.0203 C   0  0  0  0  0  0  0  0  0  0  0  0
    8.5075   -8.0396  -10.6520 C   0  0  0  0  0  0  0  0  0  0  0  0
    9.5560   -8.0914   -9.5910 C   0  0  0  0  0  0  0  0  0  0  0  0
   10.8897   -7.5516  -10.0368 C   0  0  0  0  0  0  0  0  0  0  0  0
   10.8382   -6.1514  -10.4574 C   0  0  0  0  0  0  0  0  0  0  0  0
   10.5760   -5.8733  -11.7884 C   0  0  0  0  0  0  0  0  0  0  0  0
   10.5282   -4.5442  -12.1815 C   0  0  0  0  0  0  0  0  0  0  0  0
   10.7329   -3.5105  -11.2896 C   0  0  0  0  0  0  0  0  0  0  0  0
   10.9930   -3.8344   -9.9637 C   0  0  0  0  0  0  0  0  0  0  0  0
   11.1944   -2.7453   -9.0945 O   0  0  0  0  0  0  0  0  0  0  0  0
   10.0394   -2.2424   -8.4655 C   0  0  0  0  0  0  0  0  0  0  0  0
   10.1485   -1.1754   -7.5979 C   0  0  0  0  0  0  0  0  0  0  0  0
    8.9812   -0.7214   -7.0073 C   0  0  0  0  0  0  0  0  0  0  0  0
    7.7694   -1.3378   -7.2988 C   0  0  0  0  0  0  0  0  0  0  0  0
    6.5708   -0.7866   -6.6216 C   0  0  0  0  0  0  0  0  0  0  0  0
    5.4005   -1.3092   -7.1142 F   0  0  0  0  0  0  0  0  0  0  0  0
    6.6921   -1.1562   -5.2819 F   0  0  0  0  0  0  0  0  0  0  0  0
    6.5971    0.5853   -6.6996 F   0  0  0  0  0  0  0  0  0  0  0  0
    7.6867   -2.4080   -8.1737 C   0  0  0  0  0  0  0  0  0  0  0  0
    8.8520   -2.8163   -8.7260 N   0  0  0  0  0  0  0  0  0  0  0  0
   11.0511   -5.1398   -9.5221 C   0  0  0  0  0  0  0  0  0  0  0  0
    9.6565   -9.5363   -9.1522 C   0  0  0  0  0  0  0  0  0  0  0  0
    8.4055   -9.8130   -8.3424 C   0  0  0  0  0  0  0  0  0  0  0  0
  1  2  2  0
  2  3  1  0
  3  4  1  0
  4  5  1  0
  5  6  1  0
  6  7  1  0
  7  8  1  0
  8  9  2  0
  9 10  1  0
 10 11  2  0
 11 12  1  0
 12 13  1  0
 13 14  1  0
 14 15  2  0
 15 16  1  0
 16 17  2  0
 17 18  1  0
 18 19  1  0
 18 20  1  0
 18 21  1  0
 17 22  1  0
 22 23  2  0
 12 24  2  0
  6 25  1  0
 25 26  1  0
 26  3  1  0
 24  8  1  0
 23 14  1  0
M  END
>  <shape_align_shape_tanimoto>  (3) 
0.35902455549439344

>  <shape_align_color_tanimoto>  (3) 
0.011178914258657347

>  <metric>  (3) 
combo

>  <metric_score>  (3) 
0.185

>  <template_pid>  (3) 
2WAP

>  <template_shape_score>  (3) 
0.359

>  <template_color_score>  (3) 
0.011

>  <template_combo_score>  (3) 
0.185

$$$$
