4OP1_shape_pose
     RDKit          3D

 38 41  0  0  0  0  0  0  0  0999 V2000
  -26.4508    5.4284  -23.4427 N   0  0  0  0  0  0  0  0  0  0  0  0
  -25.7771    6.4468  -22.6916 C   0  0  0  0  0  0  0  0  0  0  0  0
  -24.5972    6.9753  -23.2274 C   0  0  0  0  0  0  0  0  0  0  0  0
  -23.8968    7.9612  -22.5550 C   0  0  0  0  0  0  0  0  0  0  0  0
  -24.3992    8.3996  -21.3490 C   0  0  0  0  0  0  0  0  0  0  0  0
  -23.5042    9.6483  -20.5061 S   0  0  0  0  0  0  0  0  0  0  0  0
  -22.0294    9.4549  -20.7091 O   0  0  0  0  0  0  0  0  0  0  0  0
  -23.8045    9.4839  -19.0495 O   0  0  0  0  0  0  0  0  0  0  0  0
  -24.0816   11.1601  -21.0293 N   0  0  0  0  0  0  0  0  0  0  0  0
  -23.9047   11.4081  -22.4267 C   0  0  0  0  0  0  0  0  0  0  0  0
  -24.4500   12.7216  -22.8412 C   0  0  0  0  0  0  0  0  0  0  0  0
  -23.8770   13.8108  -22.0311 N   0  0  0  0  0  0  0  0  0  0  0  0
  -24.2125   15.1217  -22.4040 C   0  0  0  0  0  0  0  0  0  0  0  0
  -25.3597   15.2941  -23.1091 N   0  0  0  0  0  0  0  0  0  0  0  0
  -25.8505   16.4810  -23.4895 C   0  0  0  0  0  0  0  0  0  0  0  0
  -25.1851   17.6620  -23.1713 C   0  0  0  0  0  0  0  0  0  0  0  0
  -25.7828   18.9166  -23.6224 C   0  0  0  0  0  0  0  0  0  0  0  0
  -27.1757   18.7532  -23.8170 O   0  0  0  0  0  0  0  0  0  0  0  0
  -25.2692   19.3277  -25.0082 C   0  0  0  0  0  0  0  0  0  0  0  0
  -25.8103   20.4944  -25.4534 F   0  0  0  0  0  0  0  0  0  0  0  0
  -25.5219   18.3447  -25.9524 F   0  0  0  0  0  0  0  0  0  0  0  0
  -23.8781   19.4748  -24.9831 F   0  0  0  0  0  0  0  0  0  0  0  0
  -25.6313   20.0867  -22.7132 C   0  0  0  0  0  0  0  0  0  0  0  0
  -26.2090   19.8319  -21.4706 F   0  0  0  0  0  0  0  0  0  0  0  0
  -26.3892   21.1285  -23.2583 F   0  0  0  0  0  0  0  0  0  0  0  0
  -24.3417   20.4721  -22.5330 F   0  0  0  0  0  0  0  0  0  0  0  0
  -24.0201   17.5266  -22.4595 C   0  0  0  0  0  0  0  0  0  0  0  0
  -23.5262   16.2624  -22.0728 C   0  0  0  0  0  0  0  0  0  0  0  0
  -22.2638   16.2742  -21.3923 C   0  0  0  0  0  0  0  0  0  0  0  0
  -21.1179   15.6295  -21.7984 C   0  0  0  0  0  0  0  0  0  0  0  0
  -19.9407   15.6969  -21.0826 C   0  0  0  0  0  0  0  0  0  0  0  0
  -19.9436   16.4528  -19.9099 C   0  0  0  0  0  0  0  0  0  0  0  0
  -21.0500   17.0924  -19.4910 N   0  0  0  0  0  0  0  0  0  0  0  0
  -22.1903   17.0142  -20.2044 C   0  0  0  0  0  0  0  0  0  0  0  0
  -23.0692   13.3955  -20.9118 C   0  0  0  0  0  0  0  0  0  0  0  0
  -23.7736   12.2589  -20.1797 C   0  0  0  0  0  0  0  0  0  0  0  0
  -25.5664    7.8535  -20.8529 C   0  0  0  0  0  0  0  0  0  0  0  0
  -26.2518    6.8893  -21.5102 N   0  0  0  0  0  0  0  0  0  0  0  0
  1  2  1  0
  2  3  2  0
  3  4  1  0
  4  5  2  0
  5  6  1  0
  6  7  2  0
  6  8  2  0
  6  9  1  0
  9 10  1  0
 10 11  1  0
 11 12  1  0
 12 13  1  0
 13 14  2  0
 14 15  1  0
 15 16  2  0
 16 17  1  0
 17 18  1  0
 17 19  1  0
 19 20  1  0
 19 21  1  0
 19 22  1  0
 17 23  1  0
 23 24  1  0
 23 25  1  0
 23 26  1  0
 16 27  1  0
 27 28  2  0
 28 29  1  0
 29 30  2  0
 30 31  1  0
 31 32  2  0
 32 33  1  0
 33 34  2  0
 12 35  1  0
 35 36  1  0
  5 37  1  0
 37 38  2  0
 38  2  1  0
 36  9  1  0
 28 13  1  0
 34 29  1  0
M  END
>  <shape_align_shape_tanimoto>  (1) 
0.57706472060979175

>  <shape_align_color_tanimoto>  (1) 
0.032837223811347876

>  <metric>  (1) 
shape

>  <metric_score>  (1) 
0.577

>  <template_pid>  (1) 
4OP1

>  <template_shape_score>  (1) 
0.577

>  <template_color_score>  (1) 
0.033

>  <template_combo_score>  (1) 
0.305

$$$$
4OP1_color_pose
     RDKit          3D

 38 41  0  0  0  0  0  0  0  0999 V2000
  -29.7099   19.2102  -22.0262 N   0  0  0  0  0  0  0  0  0  0  0  0
  -28.3227   19.3713  -22.3557 C   0  0  0  0  0  0  0  0  0  0  0  0
  -27.9158   19.1067  -23.6622 C   0  0  0  0  0  0  0  0  0  0  0  0
  -26.5686   19.2657  -23.9714 C   0  0  0  0  0  0  0  0  0  0  0  0
  -25.6687   19.6730  -23.0090 C   0  0  0  0  0  0  0  0  0  0  0  0
  -23.9528   19.8788  -23.3872 S   0  0  0  0  0  0  0  0  0  0  0  0
  -23.4124   20.9182  -22.4707 O   0  0  0  0  0  0  0  0  0  0  0  0
  -23.8265   20.2336  -24.8312 O   0  0  0  0  0  0  0  0  0  0  0  0
  -23.2174   18.3547  -23.0838 N   0  0  0  0  0  0  0  0  0  0  0  0
  -23.7190   17.3066  -23.8901 C   0  0  0  0  0  0  0  0  0  0  0  0
  -24.6481   16.4175  -23.0550 C   0  0  0  0  0  0  0  0  0  0  0  0
  -23.7314   15.6844  -22.1560 N   0  0  0  0  0  0  0  0  0  0  0  0
  -23.8372   14.3257  -21.8785 C   0  0  0  0  0  0  0  0  0  0  0  0
  -22.8203   13.5149  -22.2783 N   0  0  0  0  0  0  0  0  0  0  0  0
  -22.8291   12.1864  -22.0719 C   0  0  0  0  0  0  0  0  0  0  0  0
  -23.8926   11.5437  -21.4272 C   0  0  0  0  0  0  0  0  0  0  0  0
  -23.7941   10.0811  -21.2569 C   0  0  0  0  0  0  0  0  0  0  0  0
  -23.0127    9.5616  -22.2867 O   0  0  0  0  0  0  0  0  0  0  0  0
  -23.0844    9.8691  -19.9112 C   0  0  0  0  0  0  0  0  0  0  0  0
  -22.9223    8.5458  -19.6190 F   0  0  0  0  0  0  0  0  0  0  0  0
  -21.8467   10.5118  -20.0064 F   0  0  0  0  0  0  0  0  0  0  0  0
  -23.7976   10.5578  -18.9450 F   0  0  0  0  0  0  0  0  0  0  0  0
  -25.0987    9.3633  -21.1491 C   0  0  0  0  0  0  0  0  0  0  0  0
  -25.8852    9.5513  -22.2757 F   0  0  0  0  0  0  0  0  0  0  0  0
  -25.7500    9.7133  -19.9926 F   0  0  0  0  0  0  0  0  0  0  0  0
  -24.8139    7.9859  -21.1467 F   0  0  0  0  0  0  0  0  0  0  0  0
  -24.9223   12.3303  -21.0168 C   0  0  0  0  0  0  0  0  0  0  0  0
  -24.8872   13.7039  -21.2433 C   0  0  0  0  0  0  0  0  0  0  0  0
  -26.0155   14.4903  -20.7629 C   0  0  0  0  0  0  0  0  0  0  0  0
  -25.8796   15.6524  -20.0341 C   0  0  0  0  0  0  0  0  0  0  0  0
  -27.0261   16.3331  -19.6203 C   0  0  0  0  0  0  0  0  0  0  0  0
  -28.2797   15.8249  -19.9518 C   0  0  0  0  0  0  0  0  0  0  0  0
  -28.3886   14.6734  -20.6737 N   0  0  0  0  0  0  0  0  0  0  0  0
  -27.2871   14.0088  -21.0778 C   0  0  0  0  0  0  0  0  0  0  0  0
  -22.6833   16.5590  -21.5867 C   0  0  0  0  0  0  0  0  0  0  0  0
  -23.1671   18.0075  -21.7108 C   0  0  0  0  0  0  0  0  0  0  0  0
  -26.1090   19.9296  -21.7104 C   0  0  0  0  0  0  0  0  0  0  0  0
  -27.4330   19.7702  -21.4190 N   0  0  0  0  0  0  0  0  0  0  0  0
  1  2  1  0
  2  3  2  0
  3  4  1  0
  4  5  2  0
  5  6  1  0
  6  7  2  0
  6  8  2  0
  6  9  1  0
  9 10  1  0
 10 11  1  0
 11 12  1  0
 12 13  1  0
 13 14  2  0
 14 15  1  0
 15 16  2  0
 16 17  1  0
 17 18  1  0
 17 19  1  0
 19 20  1  0
 19 21  1  0
 19 22  1  0
 17 23  1  0
 23 24  1  0
 23 25  1  0
 23 26  1  0
 16 27  1  0
 27 28  2  0
 28 29  1  0
 29 30  2  0
 30 31  1  0
 31 32  2  0
 32 33  1  0
 33 34  2  0
 12 35  1  0
 35 36  1  0
  5 37  1  0
 37 38  2  0
 38  2  1  0
 36  9  1  0
 28 13  1  0
 34 29  1  0
M  END
>  <shape_align_shape_tanimoto>  (2) 
0.45403211211728672

>  <shape_align_color_tanimoto>  (2) 
0.080147411197692586

>  <metric>  (2) 
color

>  <metric_score>  (2) 
0.080

>  <template_pid>  (2) 
4OP1

>  <template_shape_score>  (2) 
0.454

>  <template_color_score>  (2) 
0.080

>  <template_combo_score>  (2) 
0.267

$$$$
4OP1_combo_pose
     RDKit          3D

 38 41  0  0  0  0  0  0  0  0999 V2000
  -26.4508    5.4284  -23.4427 N   0  0  0  0  0  0  0  0  0  0  0  0
  -25.7771    6.4468  -22.6916 C   0  0  0  0  0  0  0  0  0  0  0  0
  -24.5972    6.9753  -23.2274 C   0  0  0  0  0  0  0  0  0  0  0  0
  -23.8968    7.9612  -22.5550 C   0  0  0  0  0  0  0  0  0  0  0  0
  -24.3992    8.3996  -21.3490 C   0  0  0  0  0  0  0  0  0  0  0  0
  -23.5042    9.6483  -20.5061 S   0  0  0  0  0  0  0  0  0  0  0  0
  -22.0294    9.4549  -20.7091 O   0  0  0  0  0  0  0  0  0  0  0  0
  -23.8045    9.4839  -19.0495 O   0  0  0  0  0  0  0  0  0  0  0  0
  -24.0816   11.1601  -21.0293 N   0  0  0  0  0  0  0  0  0  0  0  0
  -23.9047   11.4081  -22.4267 C   0  0  0  0  0  0  0  0  0  0  0  0
  -24.4500   12.7216  -22.8412 C   0  0  0  0  0  0  0  0  0  0  0  0
  -23.8770   13.8108  -22.0311 N   0  0  0  0  0  0  0  0  0  0  0  0
  -24.2125   15.1217  -22.4040 C   0  0  0  0  0  0  0  0  0  0  0  0
  -25.3597   15.2941  -23.1091 N   0  0  0  0  0  0  0  0  0  0  0  0
  -25.8505   16.4810  -23.4895 C   0  0  0  0  0  0  0  0  0  0  0  0
  -25.1851   17.6620  -23.1713 C   0  0  0  0  0  0  0  0  0  0  0  0
  -25.7828   18.9166  -23.6224 C   0  0  0  0  0  0  0  0  0  0  0  0
  -27.1757   18.7532  -23.8170 O   0  0  0  0  0  0  0  0  0  0  0  0
  -25.2692   19.3277  -25.0082 C   0  0  0  0  0  0  0  0  0  0  0  0
  -25.8103   20.4944  -25.4534 F   0  0  0  0  0  0  0  0  0  0  0  0
  -25.5219   18.3447  -25.9524 F   0  0  0  0  0  0  0  0  0  0  0  0
  -23.8781   19.4748  -24.9831 F   0  0  0  0  0  0  0  0  0  0  0  0
  -25.6313   20.0867  -22.7132 C   0  0  0  0  0  0  0  0  0  0  0  0
  -26.2090   19.8319  -21.4706 F   0  0  0  0  0  0  0  0  0  0  0  0
  -26.3892   21.1285  -23.2583 F   0  0  0  0  0  0  0  0  0  0  0  0
  -24.3417   20.4721  -22.5330 F   0  0  0  0  0  0  0  0  0  0  0  0
  -24.0201   17.5266  -22.4595 C   0  0  0  0  0  0  0  0  0  0  0  0
  -23.5262   16.2624  -22.0728 C   0  0  0  0  0  0  0  0  0  0  0  0
  -22.2638   16.2742  -21.3923 C   0  0  0  0  0  0  0  0  0  0  0  0
  -21.1179   15.6295  -21.7984 C   0  0  0  0  0  0  0  0  0  0  0  0
  -19.9407   15.6969  -21.0826 C   0  0  0  0  0  0  0  0  0  0  0  0
  -19.9436   16.4528  -19.9099 C   0  0  0  0  0  0  0  0  0  0  0  0
  -21.0500   17.0924  -19.4910 N   0  0  0  0  0  0  0  0  0  0  0  0
  -22.1903   17.0142  -20.2044 C   0  0  0  0  0  0  0  0  0  0  0  0
  -23.0692   13.3955  -20.9118 C   0  0  0  0  0  0  0  0  0  0  0  0
  -23.7736   12.2589  -20.1797 C   0  0  0  0  0  0  0  0  0  0  0  0
  -25.5664    7.8535  -20.8529 C   0  0  0  0  0  0  0  0  0  0  0  0
  -26.2518    6.8893  -21.5102 N   0  0  0  0  0  0  0  0  0  0  0  0
  1  2  1  0
  2  3  2  0
  3  4  1  0
  4  5  2  0
  5  6  1  0
  6  7  2  0
  6  8  2  0
  6  9  1  0
  9 10  1  0
 10 11  1  0
 11 12  1  0
 12 13  1  0
 13 14  2  0
 14 15  1  0
 15 16  2  0
 16 17  1  0
 17 18  1  0
 17 19  1  0
 19 20  1  0
 19 21  1  0
 19 22  1  0
 17 23  1  0
 23 24  1  0
 23 25  1  0
 23 26  1  0
 16 27  1  0
 27 28  2  0
 28 29  1  0
 29 30  2  0
 30 31  1  0
 31 32  2  0
 32 33  1  0
 33 34  2  0
 12 35  1  0
 35 36  1  0
  5 37  1  0
 37 38  2  0
 38  2  1  0
 36  9  1  0
 28 13  1  0
 34 29  1  0
M  END
>  <shape_align_shape_tanimoto>  (3) 
0.57706472060979175

>  <shape_align_color_tanimoto>  (3) 
0.032837223811347876

>  <metric>  (3) 
combo

>  <metric_score>  (3) 
0.305

>  <template_pid>  (3) 
4OP1

>  <template_shape_score>  (3) 
0.577

>  <template_color_score>  (3) 
0.033

>  <template_combo_score>  (3) 
0.305

$$$$
