3FUD_shape_pose
     RDKit          3D

 26 29  0  0  0  0  0  0  0  0999 V2000
   11.8679   12.3903   13.2863 O   0  0  0  0  0  0  0  0  0  0  0  0
   12.7112   11.5335   13.7637 C   0  0  0  0  0  0  0  0  0  0  0  0
   13.8199   11.1086   12.9106 C   0  0  0  0  0  0  0  0  0  0  0  0
   15.0323   10.6245   13.3807 C   0  0  0  0  0  0  0  0  0  0  0  0
   16.0379   10.2202   12.5239 C   0  0  0  0  0  0  0  0  0  0  0  0
   15.8843   10.2788   11.1020 C   0  0  0  0  0  0  0  0  0  0  0  0
   16.9161    9.8669   10.3655 O   0  0  0  0  0  0  0  0  0  0  0  0
   17.3975    9.6568    9.1285 C   0  0  0  0  0  0  0  0  0  0  0  0
   16.7931    8.6565    8.1896 C   0  0  1  0  0  0  0  0  0  0  0  0
   16.9063    7.2157    8.7499 C   0  0  0  0  0  0  0  0  0  0  0  0
   15.5291    6.5900    8.4831 C   0  0  0  0  0  0  0  0  0  0  0  0
   14.6583    7.8706    8.5838 C   0  0  0  0  0  0  0  0  0  0  0  0
   15.4411    8.7880    7.7835 N   0  0  0  0  0  0  0  0  0  0  0  0
   14.6546   10.7707   10.6857 C   0  0  0  0  0  0  0  0  0  0  0  0
   13.6410   11.1781   11.5381 C   0  0  0  0  0  0  0  0  0  0  0  0
   12.4619   11.0737   15.1279 C   0  0  0  0  0  0  0  0  0  0  0  0
   12.8904    9.8576   15.6422 C   0  0  0  0  0  0  0  0  0  0  0  0
   12.6479    9.4602   16.9651 C   0  0  0  0  0  0  0  0  0  0  0  0
   11.9470   10.3183   17.8040 C   0  0  0  0  0  0  0  0  0  0  0  0
   11.6569    9.9388   19.2343 C   0  0  0  0  0  0  0  0  0  0  0  0
   11.5678   10.8378   20.2255 C   0  0  0  0  0  0  0  0  0  0  0  0
   11.3012   10.4303   21.4932 C   0  0  0  0  0  0  0  0  0  0  0  0
   11.1385    8.5668   21.3805 S   0  0  0  0  0  0  0  0  0  0  0  0
   11.4689    8.5968   19.5489 C   0  0  0  0  0  0  0  0  0  0  0  0
   11.4968   11.5488   17.3309 C   0  0  0  0  0  0  0  0  0  0  0  0
   11.7584   11.9062   16.0113 C   0  0  0  0  0  0  0  0  0  0  0  0
  1  2  2  0
  2  3  1  0
  3  4  2  0
  4  5  1  0
  5  6  2  0
  6  7  1  0
  7  8  1  0
  9  8  1  1
  9 10  1  0
 10 11  1  0
 11 12  1  0
 12 13  1  0
  6 14  1  0
 14 15  2  0
  2 16  1  0
 16 17  2  0
 17 18  1  0
 18 19  2  0
 19 20  1  0
 20 21  1  0
 21 22  2  0
 22 23  1  0
 23 24  1  0
 19 25  1  0
 25 26  2  0
 15  3  1  0
 26 16  1  0
 13  9  1  0
 24 20  2  0
M  CHG  1  13   1
M  END
>  <shape_align_shape_tanimoto>  (1) 
0.70960504493308918

>  <shape_align_color_tanimoto>  (1) 
0.057896476840676697

>  <metric>  (1) 
shape

>  <metric_score>  (1) 
0.710

>  <template_pid>  (1) 
3FUD

>  <template_shape_score>  (1) 
0.710

>  <template_color_score>  (1) 
0.058

>  <template_combo_score>  (1) 
0.384

$$$$
3FUD_color_pose
     RDKit          3D

 26 29  0  0  0  0  0  0  0  0999 V2000
   11.1540   12.2342   14.2735 O   0  0  0  0  0  0  0  0  0  0  0  0
   12.0005   11.3708   14.7108 C   0  0  0  0  0  0  0  0  0  0  0  0
   12.9183   10.8252   13.7404 C   0  0  0  0  0  0  0  0  0  0  0  0
   13.5248    9.5954   13.8170 C   0  0  0  0  0  0  0  0  0  0  0  0
   14.3951    9.1760   12.8345 C   0  0  0  0  0  0  0  0  0  0  0  0
   14.7257    9.9225   11.7249 C   0  0  0  0  0  0  0  0  0  0  0  0
   15.5354    9.6308   10.7249 O   0  0  0  0  0  0  0  0  0  0  0  0
   16.3134    8.5315   10.3953 C   0  0  0  0  0  0  0  0  0  0  0  0
   17.0619    8.6813    9.1067 C   0  0  1  0  0  0  0  0  0  0  0  0
   16.1630    8.7828    7.9099 C   0  0  0  0  0  0  0  0  0  0  0  0
   16.5494   10.0613    7.2126 C   0  0  0  0  0  0  0  0  0  0  0  0
   17.4465   10.7805    8.1924 C   0  0  0  0  0  0  0  0  0  0  0  0
   17.9562    9.7784    9.0965 N   0  0  0  0  0  0  0  0  0  0  0  0
   14.0848   11.1890   11.6732 C   0  0  0  0  0  0  0  0  0  0  0  0
   13.2251   11.6053   12.6422 C   0  0  0  0  0  0  0  0  0  0  0  0
   11.9205   11.0646   16.1161 C   0  0  0  0  0  0  0  0  0  0  0  0
   12.9335   10.5859   16.8995 C   0  0  0  0  0  0  0  0  0  0  0  0
   12.8499   10.3070   18.2369 C   0  0  0  0  0  0  0  0  0  0  0  0
   11.6365   10.5262   18.8557 C   0  0  0  0  0  0  0  0  0  0  0  0
   11.4638   10.2618   20.3185 C   0  0  0  0  0  0  0  0  0  0  0  0
   12.1264    9.3204   20.9610 C   0  0  0  0  0  0  0  0  0  0  0  0
   11.8972    9.1364   22.3248 C   0  0  0  0  0  0  0  0  0  0  0  0
   10.6331   10.4023   22.7452 S   0  0  0  0  0  0  0  0  0  0  0  0
   10.5501   11.0515   21.0112 C   0  0  0  0  0  0  0  0  0  0  0  0
   10.5713   11.0084   18.1213 C   0  0  0  0  0  0  0  0  0  0  0  0
   10.6955   11.2783   16.7726 C   0  0  0  0  0  0  0  0  0  0  0  0
  1  2  2  0
  2  3  1  0
  3  4  2  0
  4  5  1  0
  5  6  2  0
  6  7  1  0
  7  8  1  0
  9  8  1  1
  9 10  1  0
 10 11  1  0
 11 12  1  0
 12 13  1  0
  6 14  1  0
 14 15  2  0
  2 16  1  0
 16 17  2  0
 17 18  1  0
 18 19  2  0
 19 20  1  0
 20 21  1  0
 21 22  2  0
 22 23  1  0
 23 24  1  0
 19 25  1  0
 25 26  2  0
 15  3  1  0
 26 16  1  0
 13  9  1  0
 24 20  2  0
M  CHG  1  13   1
M  END
>  <shape_align_shape_tanimoto>  (2) 
0.60351395450648837

>  <shape_align_color_tanimoto>  (2) 
0.098575723736840898

>  <metric>  (2) 
color

>  <metric_score>  (2) 
0.099

>  <template_pid>  (2) 
3FUD

>  <template_shape_score>  (2) 
0.604

>  <template_color_score>  (2) 
0.099

>  <template_combo_score>  (2) 
0.351

$$$$
3FUD_combo_pose
     RDKit          3D

 26 29  0  0  0  0  0  0  0  0999 V2000
   11.8679   12.3903   13.2863 O   0  0  0  0  0  0  0  0  0  0  0  0
   12.7112   11.5335   13.7637 C   0  0  0  0  0  0  0  0  0  0  0  0
   13.8199   11.1086   12.9106 C   0  0  0  0  0  0  0  0  0  0  0  0
   15.0323   10.6245   13.3807 C   0  0  0  0  0  0  0  0  0  0  0  0
   16.0379   10.2202   12.5239 C   0  0  0  0  0  0  0  0  0  0  0  0
   15.8843   10.2788   11.1020 C   0  0  0  0  0  0  0  0  0  0  0  0
   16.9161    9.8669   10.3655 O   0  0  0  0  0  0  0  0  0  0  0  0
   17.3975    9.6568    9.1285 C   0  0  0  0  0  0  0  0  0  0  0  0
   16.7931    8.6565    8.1896 C   0  0  1  0  0  0  0  0  0  0  0  0
   16.9063    7.2157    8.7499 C   0  0  0  0  0  0  0  0  0  0  0  0
   15.5291    6.5900    8.4831 C   0  0  0  0  0  0  0  0  0  0  0  0
   14.6583    7.8706    8.5838 C   0  0  0  0  0  0  0  0  0  0  0  0
   15.4411    8.7880    7.7835 N   0  0  0  0  0  0  0  0  0  0  0  0
   14.6546   10.7707   10.6857 C   0  0  0  0  0  0  0  0  0  0  0  0
   13.6410   11.1781   11.5381 C   0  0  0  0  0  0  0  0  0  0  0  0
   12.4619   11.0737   15.1279 C   0  0  0  0  0  0  0  0  0  0  0  0
   12.8904    9.8576   15.6422 C   0  0  0  0  0  0  0  0  0  0  0  0
   12.6479    9.4602   16.9651 C   0  0  0  0  0  0  0  0  0  0  0  0
   11.9470   10.3183   17.8040 C   0  0  0  0  0  0  0  0  0  0  0  0
   11.6569    9.9388   19.2343 C   0  0  0  0  0  0  0  0  0  0  0  0
   11.5678   10.8378   20.2255 C   0  0  0  0  0  0  0  0  0  0  0  0
   11.3012   10.4303   21.4932 C   0  0  0  0  0  0  0  0  0  0  0  0
   11.1385    8.5668   21.3805 S   0  0  0  0  0  0  0  0  0  0  0  0
   11.4689    8.5968   19.5489 C   0  0  0  0  0  0  0  0  0  0  0  0
   11.4968   11.5488   17.3309 C   0  0  0  0  0  0  0  0  0  0  0  0
   11.7584   11.9062   16.0113 C   0  0  0  0  0  0  0  0  0  0  0  0
  1  2  2  0
  2  3  1  0
  3  4  2  0
  4  5  1  0
  5  6  2  0
  6  7  1  0
  7  8  1  0
  9  8  1  1
  9 10  1  0
 10 11  1  0
 11 12  1  0
 12 13  1  0
  6 14  1  0
 14 15  2  0
  2 16  1  0
 16 17  2  0
 17 18  1  0
 18 19  2  0
 19 20  1  0
 20 21  1  0
 21 22  2  0
 22 23  1  0
 23 24  1  0
 19 25  1  0
 25 26  2  0
 15  3  1  0
 26 16  1  0
 13  9  1  0
 24 20  2  0
M  CHG  1  13   1
M  END
>  <shape_align_shape_tanimoto>  (3) 
0.70960504493308918

>  <shape_align_color_tanimoto>  (3) 
0.057896476840676697

>  <metric>  (3) 
combo

>  <metric_score>  (3) 
0.384

>  <template_pid>  (3) 
3FUD

>  <template_shape_score>  (3) 
0.710

>  <template_color_score>  (3) 
0.058

>  <template_combo_score>  (3) 
0.384

$$$$
