5VGY_shape_pose
     RDKit          3D

 10 10  0  0  0  0  0  0  0  0999 V2000
   -5.6322    7.2134   10.2362 N   0  0  0  0  0  0  0  0  0  0  0  0
   -5.2136    7.5745   11.8476 S   0  0  0  0  0  0  0  0  0  0  0  0
   -6.3289    8.4296   12.4070 O   0  0  0  0  0  0  0  0  0  0  0  0
   -3.9433    8.3687   11.8669 O   0  0  0  0  0  0  0  0  0  0  0  0
   -5.0808    6.1274   12.8335 C   0  0  0  0  0  0  0  0  0  0  0  0
   -6.1561    5.6021   13.5236 C   0  0  0  0  0  0  0  0  0  0  0  0
   -6.0333    4.4587   14.2972 C   0  0  0  0  0  0  0  0  0  0  0  0
   -4.8275    3.8034   14.4049 C   0  0  0  0  0  0  0  0  0  0  0  0
   -3.7480    4.3108   13.7263 C   0  0  0  0  0  0  0  0  0  0  0  0
   -3.8753    5.4562   12.9526 C   0  0  0  0  0  0  0  0  0  0  0  0
  1  2  1  0
  2  3  2  0
  2  4  2  0
  2  5  1  0
  5  6  2  0
  6  7  1  0
  7  8  2  0
  8  9  1  0
  9 10  2  0
 10  5  1  0
M  END
>  <shape_align_shape_tanimoto>  (1) 
0.52549999236572631

>  <shape_align_color_tanimoto>  (1) 
0.13544195838863435

>  <metric>  (1) 
shape

>  <metric_score>  (1) 
0.525

>  <template_pid>  (1) 
5VGY

>  <template_shape_score>  (1) 
0.525

>  <template_color_score>  (1) 
0.135

>  <template_combo_score>  (1) 
0.330

$$$$
5VGY_color_pose
     RDKit          3D

 10 10  0  0  0  0  0  0  0  0999 V2000
   -4.4443    9.0689   12.8495 N   0  0  0  0  0  0  0  0  0  0  0  0
   -4.8059    7.6969   11.8638 S   0  0  0  0  0  0  0  0  0  0  0  0
   -6.1256    7.9533   11.2032 O   0  0  0  0  0  0  0  0  0  0  0  0
   -3.7645    7.6160   10.7859 O   0  0  0  0  0  0  0  0  0  0  0  0
   -4.8591    6.2222   12.8263 C   0  0  0  0  0  0  0  0  0  0  0  0
   -6.0657    5.8197   13.3974 C   0  0  0  0  0  0  0  0  0  0  0  0
   -6.1425    4.6570   14.1653 C   0  0  0  0  0  0  0  0  0  0  0  0
   -5.0058    3.9183   14.3464 C   0  0  0  0  0  0  0  0  0  0  0  0
   -3.8051    4.3077   13.7851 C   0  0  0  0  0  0  0  0  0  0  0  0
   -3.6961    5.4661   13.0117 C   0  0  0  0  0  0  0  0  0  0  0  0
  1  2  1  0
  2  3  2  0
  2  4  2  0
  2  5  1  0
  5  6  2  0
  6  7  1  0
  7  8  2  0
  8  9  1  0
  9 10  2  0
 10  5  1  0
M  END
>  <shape_align_shape_tanimoto>  (2) 
0.51797249699989389

>  <shape_align_color_tanimoto>  (2) 
0.17414612228551232

>  <metric>  (2) 
color

>  <metric_score>  (2) 
0.174

>  <template_pid>  (2) 
5VGY

>  <template_shape_score>  (2) 
0.518

>  <template_color_score>  (2) 
0.174

>  <template_combo_score>  (2) 
0.346

$$$$
5VGY_combo_pose
     RDKit          3D

 10 10  0  0  0  0  0  0  0  0999 V2000
   -4.4443    9.0689   12.8495 N   0  0  0  0  0  0  0  0  0  0  0  0
   -4.8059    7.6969   11.8638 S   0  0  0  0  0  0  0  0  0  0  0  0
   -6.1256    7.9533   11.2032 O   0  0  0  0  0  0  0  0  0  0  0  0
   -3.7645    7.6160   10.7859 O   0  0  0  0  0  0  0  0  0  0  0  0
   -4.8591    6.2222   12.8263 C   0  0  0  0  0  0  0  0  0  0  0  0
   -6.0657    5.8197   13.3974 C   0  0  0  0  0  0  0  0  0  0  0  0
   -6.1425    4.6570   14.1653 C   0  0  0  0  0  0  0  0  0  0  0  0
   -5.0058    3.9183   14.3464 C   0  0  0  0  0  0  0  0  0  0  0  0
   -3.8051    4.3077   13.7851 C   0  0  0  0  0  0  0  0  0  0  0  0
   -3.6961    5.4661   13.0117 C   0  0  0  0  0  0  0  0  0  0  0  0
  1  2  1  0
  2  3  2  0
  2  4  2  0
  2  5  1  0
  5  6  2  0
  6  7  1  0
  7  8  2  0
  8  9  1  0
  9 10  2  0
 10  5  1  0
M  END
>  <shape_align_shape_tanimoto>  (3) 
0.51797249699989389

>  <shape_align_color_tanimoto>  (3) 
0.17414612228551232

>  <metric>  (3) 
combo

>  <metric_score>  (3) 
0.346

>  <template_pid>  (3) 
5VGY

>  <template_shape_score>  (3) 
0.518

>  <template_color_score>  (3) 
0.174

>  <template_combo_score>  (3) 
0.346

$$$$
