4QH7_shape_pose
     RDKit          3D

 86 87  0  0  0  0  0  0  0  0999 V2000
    7.3019   -1.9541   21.4761 C   0  0  0  0  0  0  0  0  0  0  0  0
    6.2221   -1.0698   20.8070 C   0  0  0  0  0  0  0  0  0  0  0  0
    5.8322   -1.7022   19.5122 C   0  0  2  0  0  0  0  0  0  0  0  0
    7.0495   -1.7874   18.5671 C   0  0  0  0  0  0  0  0  0  0  0  0
    4.5540   -1.4380   18.9059 C   0  0  2  0  0  0  0  0  0  0  0  0
    4.4064   -2.1867   17.6355 N   0  0  0  0  0  0  0  0  0  0  0  0
    3.3013   -3.0268   17.3538 C   0  0  0  0  0  0  0  0  0  0  0  0
    2.3511   -3.1850   18.1828 O   0  0  0  0  0  0  0  0  0  0  0  0
    3.3187   -3.7094   16.0281 C   0  0  1  0  0  0  0  0  0  0  0  0
    4.5792   -3.5854   15.3387 N   0  0  0  0  0  0  0  0  0  0  0  0
    5.7611   -4.2959   15.6996 C   0  0  0  0  0  0  0  0  0  0  0  0
    5.7318   -5.0989   16.6888 O   0  0  0  0  0  0  0  0  0  0  0  0
    7.0562   -4.1823   15.0078 C   0  0  2  0  0  0  0  0  0  0  0  0
    7.0359   -4.3152   13.5261 C   0  0  0  0  0  0  0  0  0  0  0  0
    8.4082   -4.1889   12.9394 C   0  0  0  0  0  0  0  0  0  0  0  0
    8.9492   -2.9756   12.5826 C   0  0  0  0  0  0  0  0  0  0  0  0
   10.2342   -2.8630   12.0345 C   0  0  0  0  0  0  0  0  0  0  0  0
   10.9620   -4.0088   11.8538 C   0  0  0  0  0  0  0  0  0  0  0  0
   12.2487   -3.9306   11.3073 O   0  0  0  0  0  0  0  0  0  0  0  0
   10.4205   -5.2188   12.2105 C   0  0  0  0  0  0  0  0  0  0  0  0
    9.1596   -5.3247   12.7481 C   0  0  0  0  0  0  0  0  0  0  0  0
    7.9918   -5.1255   15.6314 N   0  0  0  0  0  0  0  0  0  0  0  0
    9.1234   -4.6707   16.3750 C   0  0  0  0  0  0  0  0  0  0  0  0
    9.3526   -3.4443   16.5195 O   0  0  0  0  0  0  0  0  0  0  0  0
   10.0472   -5.6819   16.9892 C   0  0  2  0  0  0  0  0  0  0  0  0
    9.2261   -6.5477   17.9384 C   0  0  0  0  0  0  0  0  0  0  0  0
   11.1095   -5.0079   17.6807 N   0  0  0  0  0  0  0  0  0  0  0  0
    2.7027   -5.0680   16.0137 C   0  0  1  0  0  0  0  0  0  0  0  0
    2.4544   -5.4804   14.5471 C   0  0  0  0  0  0  0  0  0  0  0  0
    3.4083   -6.0874   16.5734 O   0  0  0  0  0  0  0  0  0  0  0  0
    3.9009   -0.1471   18.8165 C   0  0  0  0  0  0  0  0  0  0  0  0
    3.0712   -0.0156   17.8201 O   0  0  0  0  0  0  0  0  0  0  0  0
    4.0157    0.9783   19.6285 N   0  0  0  0  0  0  0  0  0  0  0  0
    3.2561    2.1903   19.4428 C   0  0  1  0  0  0  0  0  0  0  0  0
    3.3517    3.1504   20.5571 C   0  0  0  0  0  0  0  0  0  0  0  0
    2.7354    2.3475   22.0891 S   0  0  0  0  0  0  0  0  0  0  0  0
    3.5603    2.7466   18.0812 C   0  0  0  0  0  0  0  0  0  0  0  0
    4.3655    2.1993   17.2898 O   0  0  0  0  0  0  0  0  0  0  0  0
    2.8440    3.9491   17.7575 N   0  0  0  0  0  0  0  0  0  0  0  0
    2.8848    4.6647   16.5398 C   0  0  1  0  0  0  0  0  0  0  0  0
    1.4856    4.8769   15.9535 C   0  0  0  0  0  0  0  0  0  0  0  0
    3.5871    5.9312   16.4669 C   0  0  0  0  0  0  0  0  0  0  0  0
    3.3577    6.6501   15.4210 O   0  0  0  0  0  0  0  0  0  0  0  0
    4.4956    6.4899   17.3840 N   0  0  0  0  0  0  0  0  0  0  0  0
    5.0562    7.7814   17.0583 C   0  0  0  0  0  0  0  0  0  0  0  0
    5.8441    7.8685   15.8362 C   0  0  0  0  0  0  0  0  0  0  0  0
    6.2955    9.0376   15.5313 O   0  0  0  0  0  0  0  0  0  0  0  0
    6.1765    6.8438   14.9441 N   0  0  0  0  0  0  0  0  0  0  0  0
    6.9583    7.0257   13.7265 C   0  0  2  0  0  0  0  0  0  0  0  0
    6.1479    6.5529   12.6055 C   0  0  0  0  0  0  0  0  0  0  0  0
    4.9705    6.1244   12.9056 O   0  0  0  0  0  0  0  0  0  0  0  0
    6.4739    6.5061   11.2483 N   0  0  0  0  0  0  0  0  0  0  0  0
    5.5050    6.0213   10.2588 C   0  0  1  0  0  0  0  0  0  0  0  0
    5.3271    7.0385    9.1717 C   0  0  0  0  0  0  0  0  0  0  0  0
    4.3433    6.6250    8.1172 C   0  0  0  0  0  0  0  0  0  0  0  0
    4.1750    7.7262    7.0910 C   0  0  0  0  0  0  0  0  0  0  0  0
    3.2168    7.4373    6.0653 N   0  0  0  0  0  0  0  0  0  0  0  0
    4.8267    8.7918    7.1480 O   0  0  0  0  0  0  0  0  0  0  0  0
    5.8061    4.7034    9.7172 C   0  0  0  0  0  0  0  0  0  0  0  0
    5.0838    4.0826    8.8673 O   0  0  0  0  0  0  0  0  0  0  0  0
    6.9811    3.9493   10.1019 N   0  0  0  0  0  0  0  0  0  0  0  0
    7.2594    2.6384    9.5501 C   0  0  2  0  0  0  0  0  0  0  0  0
    7.1508    1.5552   10.5883 C   0  0  0  0  0  0  0  0  0  0  0  0
    7.4566    0.3577   10.3339 O   0  0  0  0  0  0  0  0  0  0  0  0
    6.7005    1.8492   11.8854 N   0  0  0  0  0  0  0  0  0  0  0  0
    6.5917    0.8342   12.9475 C   0  0  1  0  0  0  0  0  0  0  0  0
    7.2885    1.4536   14.1264 C   0  0  0  0  0  0  0  0  0  0  0  0
    7.3838    0.6581   15.3405 C   0  0  0  0  0  0  0  0  0  0  0  0
    7.0323   -0.5084   15.5511 O   0  0  0  0  0  0  0  0  0  0  0  0
    7.9709    1.3188   16.4581 O   0  0  0  0  0  0  0  0  0  0  0  0
    5.1786    0.5760   13.2057 C   0  0  0  0  0  0  0  0  0  0  0  0
    4.9408   -0.1761   14.2386 O   0  0  0  0  0  0  0  0  0  0  0  0
    4.0342    1.0071   12.5168 N   0  0  0  0  0  0  0  0  0  0  0  0
    3.7731    1.7825   11.3524 C   0  0  0  0  0  0  0  0  0  0  0  0
    2.4755    2.5667   11.6248 C   0  0  0  0  0  0  0  0  0  0  0  0
    1.9740    1.9976   12.9451 C   0  0  0  0  0  0  0  0  0  0  0  0
    2.6733    0.6462   13.0143 C   0  0  1  0  0  0  0  0  0  0  0  0
    2.0282   -0.3381   12.1442 C   0  0  0  0  0  0  0  0  0  0  0  0
    2.2692   -1.5660   12.2365 O   0  0  0  0  0  0  0  0  0  0  0  0
    1.1105    0.0423   11.1678 O   0  0  0  0  0  0  0  0  0  0  0  0
    8.6323    2.5804    8.9691 C   0  0  1  0  0  0  0  0  0  0  0  0
    8.8938    1.1660    8.4377 C   0  0  0  0  0  0  0  0  0  0  0  0
    8.8142    3.5035    7.9379 O   0  0  0  0  0  0  0  0  0  0  0  0
    8.2794    6.3559   13.7724 C   0  0  1  0  0  0  0  0  0  0  0  0
    8.2399    4.8729   14.0335 C   0  0  0  0  0  0  0  0  0  0  0  0
    8.9413    6.5608   12.5641 O   0  0  0  0  0  0  0  0  0  0  0  0
  1  2  1  0
  2  3  1  0
  3  4  1  6
  3  5  1  0
  5  6  1  6
  6  7  1  0
  7  8  2  0
  7  9  1  0
  9 10  1  1
 10 11  1  0
 11 12  2  0
 11 13  1  0
 13 14  1  6
 14 15  1  0
 15 16  2  0
 16 17  1  0
 17 18  2  0
 18 19  1  0
 18 20  1  0
 20 21  2  0
 13 22  1  0
 22 23  1  0
 23 24  2  0
 23 25  1  0
 25 26  1  1
 25 27  1  0
  9 28  1  0
 28 29  1  6
 28 30  1  0
  5 31  1  0
 31 32  2  0
 31 33  1  0
 33 34  1  0
 34 35  1  1
 35 36  1  0
 34 37  1  0
 37 38  2  0
 37 39  1  0
 39 40  1  0
 40 41  1  1
 40 42  1  0
 42 43  2  0
 42 44  1  0
 44 45  1  0
 45 46  1  0
 46 47  2  0
 46 48  1  0
 49 48  1  1
 49 50  1  0
 50 51  2  0
 50 52  1  0
 52 53  1  0
 53 54  1  6
 54 55  1  0
 55 56  1  0
 56 57  1  0
 56 58  2  0
 53 59  1  0
 59 60  2  0
 59 61  1  0
 62 61  1  1
 62 63  1  0
 63 64  2  0
 63 65  1  0
 65 66  1  0
 66 67  1  1
 67 68  1  0
 68 69  2  0
 68 70  1  0
 66 71  1  0
 71 72  2  0
 71 73  1  0
 73 74  1  0
 74 75  1  0
 75 76  1  0
 76 77  1  0
 77 78  1  6
 78 79  2  0
 78 80  1  0
 62 81  1  0
 81 82  1  6
 81 83  1  0
 49 84  1  0
 84 85  1  6
 84 86  1  0
 21 15  1  0
 77 73  1  0
M  CHG  3  27   1  70  -1  80  -1
M  END
>  <shape_align_shape_tanimoto>  (1) 
0.34136023327177178

>  <shape_align_color_tanimoto>  (1) 
0.0061297976716687044

>  <metric>  (1) 
shape

>  <metric_score>  (1) 
0.341

>  <template_pid>  (1) 
4QH7

>  <template_shape_score>  (1) 
0.341

>  <template_color_score>  (1) 
0.006

>  <template_combo_score>  (1) 
0.174

$$$$
4QH7_color_pose
     RDKit          3D

 86 87  0  0  0  0  0  0  0  0999 V2000
   -1.7857   -5.5688   11.1592 C   0  0  0  0  0  0  0  0  0  0  0  0
   -1.0413   -4.6982   10.1667 C   0  0  0  0  0  0  0  0  0  0  0  0
   -2.0736   -3.9081    9.3957 C   0  0  2  0  0  0  0  0  0  0  0  0
   -3.0315   -4.7987    8.6435 C   0  0  0  0  0  0  0  0  0  0  0  0
   -1.4354   -2.9598    8.4102 C   0  0  2  0  0  0  0  0  0  0  0  0
   -0.6237   -3.6447    7.4404 N   0  0  0  0  0  0  0  0  0  0  0  0
   -0.4876   -3.1402    6.1493 C   0  0  0  0  0  0  0  0  0  0  0  0
   -1.0718   -2.0163    5.9127 O   0  0  0  0  0  0  0  0  0  0  0  0
    0.2576   -3.7583    5.0174 C   0  0  1  0  0  0  0  0  0  0  0  0
    0.6405   -2.6482    4.1754 N   0  0  0  0  0  0  0  0  0  0  0  0
   -0.1753   -1.8446    3.3617 C   0  0  0  0  0  0  0  0  0  0  0  0
   -1.4023   -2.0377    3.3241 O   0  0  0  0  0  0  0  0  0  0  0  0
    0.5412   -0.7798    2.5830 C   0  0  2  0  0  0  0  0  0  0  0  0
   -0.1645   -0.3549    1.3635 C   0  0  0  0  0  0  0  0  0  0  0  0
   -1.5043    0.2444    1.5781 C   0  0  0  0  0  0  0  0  0  0  0  0
   -1.5043    1.5926    1.9519 C   0  0  0  0  0  0  0  0  0  0  0  0
   -2.6522    2.3075    2.1743 C   0  0  0  0  0  0  0  0  0  0  0  0
   -3.8519    1.6477    2.0165 C   0  0  0  0  0  0  0  0  0  0  0  0
   -5.0068    2.3752    2.2442 O   0  0  0  0  0  0  0  0  0  0  0  0
   -3.8664    0.3054    1.6437 C   0  0  0  0  0  0  0  0  0  0  0  0
   -2.6954   -0.4115    1.4197 C   0  0  0  0  0  0  0  0  0  0  0  0
    1.9388   -1.0526    2.4884 N   0  0  0  0  0  0  0  0  0  0  0  0
    3.0013   -0.3076    3.0442 C   0  0  0  0  0  0  0  0  0  0  0  0
    2.7828    0.7520    3.7235 O   0  0  0  0  0  0  0  0  0  0  0  0
    4.3945   -0.7779    2.8268 C   0  0  2  0  0  0  0  0  0  0  0  0
    4.6369   -2.1513    3.4801 C   0  0  0  0  0  0  0  0  0  0  0  0
    5.3319    0.1137    3.4433 N   0  0  0  0  0  0  0  0  0  0  0  0
    1.4358   -4.5647    5.3934 C   0  0  1  0  0  0  0  0  0  0  0  0
    1.1599   -5.8537    6.1088 C   0  0  0  0  0  0  0  0  0  0  0  0
    2.0144   -4.9728    4.1419 O   0  0  0  0  0  0  0  0  0  0  0  0
   -0.8903   -1.7565    9.0318 C   0  0  0  0  0  0  0  0  0  0  0  0
   -1.6661   -1.1721    9.8823 O   0  0  0  0  0  0  0  0  0  0  0  0
    0.3722   -1.1604    8.8133 N   0  0  0  0  0  0  0  0  0  0  0  0
    0.6438    0.0670    9.5664 C   0  0  1  0  0  0  0  0  0  0  0  0
    1.4371   -0.2934   10.8180 C   0  0  0  0  0  0  0  0  0  0  0  0
    1.7374    1.2127   11.7545 S   0  0  0  0  0  0  0  0  0  0  0  0
    1.3998    1.0151    8.7176 C   0  0  0  0  0  0  0  0  0  0  0  0
    1.8825    0.5841    7.6555 O   0  0  0  0  0  0  0  0  0  0  0  0
    1.6032    2.3855    9.0498 N   0  0  0  0  0  0  0  0  0  0  0  0
    2.4100    3.1496    8.0848 C   0  0  1  0  0  0  0  0  0  0  0  0
    1.7244    4.3706    7.5799 C   0  0  0  0  0  0  0  0  0  0  0  0
    3.6150    3.5791    8.8512 C   0  0  0  0  0  0  0  0  0  0  0  0
    3.5095    3.4386   10.1197 O   0  0  0  0  0  0  0  0  0  0  0  0
    4.8008    4.0920    8.2878 N   0  0  0  0  0  0  0  0  0  0  0  0
    5.8644    4.4072    9.2808 C   0  0  0  0  0  0  0  0  0  0  0  0
    6.1866    3.1568   10.0089 C   0  0  0  0  0  0  0  0  0  0  0  0
    5.5654    2.1186    9.6468 O   0  0  0  0  0  0  0  0  0  0  0  0
    7.1086    3.0163   11.0636 N   0  0  0  0  0  0  0  0  0  0  0  0
    7.2211    1.6805   11.6437 C   0  0  2  0  0  0  0  0  0  0  0  0
    6.9375    1.7059   13.0990 C   0  0  0  0  0  0  0  0  0  0  0  0
    6.9164    2.8339   13.6680 O   0  0  0  0  0  0  0  0  0  0  0  0
    6.6903    0.5443   13.8765 N   0  0  0  0  0  0  0  0  0  0  0  0
    6.4457    0.7611   15.3047 C   0  0  1  0  0  0  0  0  0  0  0  0
    4.9192    1.0647   15.4442 C   0  0  0  0  0  0  0  0  0  0  0  0
    4.5055    1.3253   16.8509 C   0  0  0  0  0  0  0  0  0  0  0  0
    3.0202    1.6295   16.9172 C   0  0  0  0  0  0  0  0  0  0  0  0
    2.3914    1.9401   18.1547 N   0  0  0  0  0  0  0  0  0  0  0  0
    2.3085    1.6148   15.8775 O   0  0  0  0  0  0  0  0  0  0  0  0
    6.6574   -0.4281   16.1295 C   0  0  0  0  0  0  0  0  0  0  0  0
    6.8423   -0.2533   17.3812 O   0  0  0  0  0  0  0  0  0  0  0  0
    6.6690   -1.7452   15.6642 N   0  0  0  0  0  0  0  0  0  0  0  0
    6.8729   -2.9454   16.4282 C   0  0  2  0  0  0  0  0  0  0  0  0
    7.6491   -3.9605   15.6831 C   0  0  0  0  0  0  0  0  0  0  0  0
    8.0886   -3.5919   14.5436 O   0  0  0  0  0  0  0  0  0  0  0  0
    7.9135   -5.2642   16.1480 N   0  0  0  0  0  0  0  0  0  0  0  0
    8.6767   -6.1595   15.2936 C   0  0  1  0  0  0  0  0  0  0  0  0
    9.9097   -6.6318   16.0267 C   0  0  0  0  0  0  0  0  0  0  0  0
    9.6013   -7.3874   17.2729 C   0  0  0  0  0  0  0  0  0  0  0  0
    8.4065   -7.6015   17.6022 O   0  0  0  0  0  0  0  0  0  0  0  0
   10.6965   -7.8198   18.0142 O   0  0  0  0  0  0  0  0  0  0  0  0
    7.8288   -7.3058   14.8637 C   0  0  0  0  0  0  0  0  0  0  0  0
    6.6334   -7.2883   15.3311 O   0  0  0  0  0  0  0  0  0  0  0  0
    8.2501   -8.3511   14.0158 N   0  0  0  0  0  0  0  0  0  0  0  0
    9.5277   -8.5883   13.3664 C   0  0  0  0  0  0  0  0  0  0  0  0
    9.1999   -9.3464   12.1094 C   0  0  0  0  0  0  0  0  0  0  0  0
    7.7712   -9.7857   12.1941 C   0  0  0  0  0  0  0  0  0  0  0  0
    7.4085   -9.4625   13.6074 C   0  0  1  0  0  0  0  0  0  0  0  0
    7.6315  -10.5863   14.5591 C   0  0  0  0  0  0  0  0  0  0  0  0
    6.7776  -11.5415   14.6262 O   0  0  0  0  0  0  0  0  0  0  0  0
    8.7339  -10.6203   15.3662 O   0  0  0  0  0  0  0  0  0  0  0  0
    5.5126   -3.5503   16.8476 C   0  0  1  0  0  0  0  0  0  0  0  0
    4.8303   -2.7549   17.8991 C   0  0  0  0  0  0  0  0  0  0  0  0
    4.7453   -3.8514   15.7434 O   0  0  0  0  0  0  0  0  0  0  0  0
    8.6329    1.1969   11.3418 C   0  0  1  0  0  0  0  0  0  0  0  0
    9.6724    2.1522   11.8442 C   0  0  0  0  0  0  0  0  0  0  0  0
    8.8778   -0.0843   11.8365 O   0  0  0  0  0  0  0  0  0  0  0  0
  1  2  1  0
  2  3  1  0
  3  4  1  6
  3  5  1  0
  5  6  1  1
  6  7  1  0
  7  8  2  0
  7  9  1  0
  9 10  1  6
 10 11  1  0
 11 12  2  0
 11 13  1  0
 13 14  1  6
 14 15  1  0
 15 16  2  0
 16 17  1  0
 17 18  2  0
 18 19  1  0
 18 20  1  0
 20 21  2  0
 13 22  1  0
 22 23  1  0
 23 24  2  0
 23 25  1  0
 25 26  1  1
 25 27  1  0
  9 28  1  0
 28 29  1  1
 28 30  1  0
  5 31  1  0
 31 32  2  0
 31 33  1  0
 33 34  1  0
 34 35  1  1
 35 36  1  0
 34 37  1  0
 37 38  2  0
 37 39  1  0
 39 40  1  0
 40 41  1  1
 40 42  1  0
 42 43  2  0
 42 44  1  0
 44 45  1  0
 45 46  1  0
 46 47  2  0
 46 48  1  0
 49 48  1  1
 49 50  1  0
 50 51  2  0
 50 52  1  0
 52 53  1  0
 53 54  1  6
 54 55  1  0
 55 56  1  0
 56 57  1  0
 56 58  2  0
 53 59  1  0
 59 60  2  0
 59 61  1  0
 62 61  1  6
 62 63  1  0
 63 64  2  0
 63 65  1  0
 65 66  1  0
 66 67  1  1
 67 68  1  0
 68 69  2  0
 68 70  1  0
 66 71  1  0
 71 72  2  0
 71 73  1  0
 73 74  1  0
 74 75  1  0
 75 76  1  0
 76 77  1  0
 77 78  1  1
 78 79  2  0
 78 80  1  0
 62 81  1  0
 81 82  1  1
 81 83  1  0
 49 84  1  0
 84 85  1  1
 84 86  1  0
 21 15  1  0
 77 73  1  0
M  CHG  3  27   1  70  -1  80  -1
M  END
>  <shape_align_shape_tanimoto>  (2) 
0.24772938247276186

>  <shape_align_color_tanimoto>  (2) 
0.067411981819985631

>  <metric>  (2) 
color

>  <metric_score>  (2) 
0.067

>  <template_pid>  (2) 
4QH7

>  <template_shape_score>  (2) 
0.248

>  <template_color_score>  (2) 
0.067

>  <template_combo_score>  (2) 
0.158

$$$$
4QH7_combo_pose
     RDKit          3D

 86 87  0  0  0  0  0  0  0  0999 V2000
    9.8084   -0.1604   13.7474 C   0  0  0  0  0  0  0  0  0  0  0  0
    8.9074    0.9680   14.0801 C   0  0  0  0  0  0  0  0  0  0  0  0
    7.5528    0.9616   13.4719 C   0  0  2  0  0  0  0  0  0  0  0  0
    6.7078   -0.2423   13.8145 C   0  0  0  0  0  0  0  0  0  0  0  0
    7.4739    1.2916   12.0126 C   0  0  2  0  0  0  0  0  0  0  0  0
    8.1939    0.4354   11.1305 N   0  0  0  0  0  0  0  0  0  0  0  0
    7.6538   -0.2772   10.0312 C   0  0  0  0  0  0  0  0  0  0  0  0
    6.4255   -0.1266    9.8011 O   0  0  0  0  0  0  0  0  0  0  0  0
    8.4735   -1.1736    9.1723 C   0  0  1  0  0  0  0  0  0  0  0  0
    7.6211   -1.7616    8.1293 N   0  0  0  0  0  0  0  0  0  0  0  0
    6.8119   -2.8897    8.4143 C   0  0  0  0  0  0  0  0  0  0  0  0
    6.8289   -3.3613    9.5983 O   0  0  0  0  0  0  0  0  0  0  0  0
    5.9410   -3.5730    7.4414 C   0  0  2  0  0  0  0  0  0  0  0  0
    5.2511   -2.7498    6.4379 C   0  0  0  0  0  0  0  0  0  0  0  0
    4.3179   -1.7240    6.8609 C   0  0  0  0  0  0  0  0  0  0  0  0
    2.9718   -2.0859    7.0064 C   0  0  0  0  0  0  0  0  0  0  0  0
    2.0023   -1.1820    7.3766 C   0  0  0  0  0  0  0  0  0  0  0  0
    2.3589    0.1245    7.6144 C   0  0  0  0  0  0  0  0  0  0  0  0
    1.3505    1.0006    7.9829 O   0  0  0  0  0  0  0  0  0  0  0  0
    3.6699    0.5335    7.4867 C   0  0  0  0  0  0  0  0  0  0  0  0
    4.6128   -0.4022    7.1141 C   0  0  0  0  0  0  0  0  0  0  0  0
    5.1338   -4.5631    8.1255 N   0  0  0  0  0  0  0  0  0  0  0  0
    5.3315   -5.9638    8.0064 C   0  0  0  0  0  0  0  0  0  0  0  0
    6.1967   -6.5124    7.3173 O   0  0  0  0  0  0  0  0  0  0  0  0
    4.3924   -6.8326    8.8006 C   0  0  2  0  0  0  0  0  0  0  0  0
    4.4947   -6.4791   10.2803 C   0  0  0  0  0  0  0  0  0  0  0  0
    4.6893   -8.2321    8.6663 N   0  0  0  0  0  0  0  0  0  0  0  0
    9.7021   -0.6064    8.6031 C   0  0  1  0  0  0  0  0  0  0  0  0
    9.4502    0.3496    7.4466 C   0  0  0  0  0  0  0  0  0  0  0  0
   10.5618   -0.0505    9.5234 O   0  0  0  0  0  0  0  0  0  0  0  0
    7.6330    2.7423   11.7787 C   0  0  0  0  0  0  0  0  0  0  0  0
    7.1214    3.4993   12.6808 O   0  0  0  0  0  0  0  0  0  0  0  0
    8.2752    3.3370   10.6793 N   0  0  0  0  0  0  0  0  0  0  0  0
    8.3158    4.7991   10.6623 C   0  0  1  0  0  0  0  0  0  0  0  0
    9.5246    5.3866   10.0522 C   0  0  0  0  0  0  0  0  0  0  0  0
   10.9990    4.8451   10.9693 S   0  0  0  0  0  0  0  0  0  0  0  0
    7.0287    5.2929   10.0436 C   0  0  0  0  0  0  0  0  0  0  0  0
    6.8864    6.5372    9.9992 O   0  0  0  0  0  0  0  0  0  0  0  0
    6.0477    4.3720    9.5507 N   0  0  0  0  0  0  0  0  0  0  0  0
    4.8383    4.9893    9.0073 C   0  0  1  0  0  0  0  0  0  0  0  0
    4.9132    4.7750    7.5069 C   0  0  0  0  0  0  0  0  0  0  0  0
    3.6256    4.3855    9.5884 C   0  0  0  0  0  0  0  0  0  0  0  0
    2.5159    4.9689    9.3342 O   0  0  0  0  0  0  0  0  0  0  0  0
    3.6537    3.2062   10.3978 N   0  0  0  0  0  0  0  0  0  0  0  0
    2.3803    2.7433   10.9033 C   0  0  0  0  0  0  0  0  0  0  0  0
    2.4825    1.4620   11.6656 C   0  0  0  0  0  0  0  0  0  0  0  0
    3.6174    0.9528   11.7519 O   0  0  0  0  0  0  0  0  0  0  0  0
    1.2989    0.9453   12.2098 N   0  0  0  0  0  0  0  0  0  0  0  0
    1.0648   -0.2314   12.9423 C   0  0  2  0  0  0  0  0  0  0  0  0
    1.5719   -0.2902   14.3389 C   0  0  0  0  0  0  0  0  0  0  0  0
    1.0971   -1.2929   15.0037 O   0  0  0  0  0  0  0  0  0  0  0  0
    2.4718    0.6257   14.9058 N   0  0  0  0  0  0  0  0  0  0  0  0
    3.0136    0.6181   16.2391 C   0  0  1  0  0  0  0  0  0  0  0  0
    2.2809    1.6071   17.0455 C   0  0  0  0  0  0  0  0  0  0  0  0
    2.6517    1.7911   18.4709 C   0  0  0  0  0  0  0  0  0  0  0  0
    4.0462    2.1847   18.7217 C   0  0  0  0  0  0  0  0  0  0  0  0
    4.5523    2.3535   20.0665 N   0  0  0  0  0  0  0  0  0  0  0  0
    4.8996    2.4024   17.8140 O   0  0  0  0  0  0  0  0  0  0  0  0
    3.2404   -0.6709   16.8788 C   0  0  0  0  0  0  0  0  0  0  0  0
    3.3007   -0.6884   18.1510 O   0  0  0  0  0  0  0  0  0  0  0  0
    3.4105   -1.9308   16.2565 N   0  0  0  0  0  0  0  0  0  0  0  0
    3.5967   -3.1162   17.0423 C   0  0  2  0  0  0  0  0  0  0  0  0
    4.7140   -3.9314   16.5550 C   0  0  0  0  0  0  0  0  0  0  0  0
    4.8984   -5.0469   17.1677 O   0  0  0  0  0  0  0  0  0  0  0  0
    5.5906   -3.6385   15.5162 N   0  0  0  0  0  0  0  0  0  0  0  0
    6.6609   -4.6568   15.2089 C   0  0  1  0  0  0  0  0  0  0  0  0
    6.6558   -4.7880   13.6880 C   0  0  0  0  0  0  0  0  0  0  0  0
    7.6486   -5.7370   13.2182 C   0  0  0  0  0  0  0  0  0  0  0  0
    8.8698   -5.4578   13.1712 O   0  0  0  0  0  0  0  0  0  0  0  0
    7.3180   -7.0372   12.7788 O   0  0  0  0  0  0  0  0  0  0  0  0
    7.8975   -3.9760   15.6007 C   0  0  0  0  0  0  0  0  0  0  0  0
    7.8281   -2.6860   15.6219 O   0  0  0  0  0  0  0  0  0  0  0  0
    9.1454   -4.5046   15.9603 N   0  0  0  0  0  0  0  0  0  0  0  0
   10.2774   -3.5536   16.1917 C   0  0  0  0  0  0  0  0  0  0  0  0
   11.1435   -4.2394   17.1925 C   0  0  0  0  0  0  0  0  0  0  0  0
   10.4624   -5.5186   17.5614 C   0  0  0  0  0  0  0  0  0  0  0  0
    9.6641   -5.8031   16.2369 C   0  0  1  0  0  0  0  0  0  0  0  0
    8.6788   -6.8467   16.5349 C   0  0  0  0  0  0  0  0  0  0  0  0
    8.2828   -6.9744   17.7485 O   0  0  0  0  0  0  0  0  0  0  0  0
    8.1195   -7.7304   15.6377 O   0  0  0  0  0  0  0  0  0  0  0  0
    2.3711   -4.0110   17.0491 C   0  0  1  0  0  0  0  0  0  0  0  0
    1.2617   -3.4023   17.8727 C   0  0  0  0  0  0  0  0  0  0  0  0
    1.9810   -4.4405   15.7974 O   0  0  0  0  0  0  0  0  0  0  0  0
    1.5247   -1.4969   12.2140 C   0  0  1  0  0  0  0  0  0  0  0  0
    0.7963   -1.6570   10.8958 C   0  0  0  0  0  0  0  0  0  0  0  0
    2.8834   -1.4385   11.9930 O   0  0  0  0  0  0  0  0  0  0  0  0
  1  2  1  0
  2  3  1  0
  3  4  1  6
  3  5  1  0
  5  6  1  6
  6  7  1  0
  7  8  2  0
  7  9  1  0
  9 10  1  6
 10 11  1  0
 11 12  2  0
 11 13  1  0
 13 14  1  1
 14 15  1  0
 15 16  2  0
 16 17  1  0
 17 18  2  0
 18 19  1  0
 18 20  1  0
 20 21  2  0
 13 22  1  0
 22 23  1  0
 23 24  2  0
 23 25  1  0
 25 26  1  1
 25 27  1  0
  9 28  1  0
 28 29  1  6
 28 30  1  0
  5 31  1  0
 31 32  2  0
 31 33  1  0
 33 34  1  0
 34 35  1  6
 35 36  1  0
 34 37  1  0
 37 38  2  0
 37 39  1  0
 39 40  1  0
 40 41  1  6
 40 42  1  0
 42 43  2  0
 42 44  1  0
 44 45  1  0
 45 46  1  0
 46 47  2  0
 46 48  1  0
 49 48  1  6
 49 50  1  0
 50 51  2  0
 50 52  1  0
 52 53  1  0
 53 54  1  1
 54 55  1  0
 55 56  1  0
 56 57  1  0
 56 58  2  0
 53 59  1  0
 59 60  2  0
 59 61  1  0
 62 61  1  6
 62 63  1  0
 63 64  2  0
 63 65  1  0
 65 66  1  0
 66 67  1  6
 67 68  1  0
 68 69  2  0
 68 70  1  0
 66 71  1  0
 71 72  2  0
 71 73  1  0
 73 74  1  0
 74 75  1  0
 75 76  1  0
 76 77  1  0
 77 78  1  1
 78 79  2  0
 78 80  1  0
 62 81  1  0
 81 82  1  6
 81 83  1  0
 49 84  1  0
 84 85  1  6
 84 86  1  0
 21 15  1  0
 77 73  1  0
M  CHG  3  27   1  70  -1  80  -1
M  END
>  <shape_align_shape_tanimoto>  (3) 
0.34108761672269705

>  <shape_align_color_tanimoto>  (3) 
0.05708968890268043

>  <metric>  (3) 
combo

>  <metric_score>  (3) 
0.199

>  <template_pid>  (3) 
4QH7

>  <template_shape_score>  (3) 
0.341

>  <template_color_score>  (3) 
0.057

>  <template_combo_score>  (3) 
0.199

$$$$
