5ZNR_shape_pose
     RDKit          3D

109109  0  0  0  0  0  0  0  0999 V2000
    5.6293  -14.9599   24.6897 C   0  0  0  0  0  0  0  0  0  0  0  0
    5.8176  -15.3970   23.2649 C   0  0  0  0  0  0  0  0  0  0  0  0
    6.7928  -16.5294   23.1013 C   0  0  0  0  0  0  0  0  0  0  0  0
    4.4509  -15.8902   22.7237 C   0  0  2  0  0  0  0  0  0  0  0  0
    4.6809  -16.2963   21.3632 N   0  0  0  0  0  0  0  0  0  0  0  0
    4.8320  -17.6700   20.9526 C   0  0  0  0  0  0  0  0  0  0  0  0
    4.7733  -18.6148   21.7929 O   0  0  0  0  0  0  0  0  0  0  0  0
    5.0569  -17.8709   19.5057 C   0  0  0  0  0  0  0  0  0  0  0  0
    5.2475  -19.2626   19.1282 N   0  0  0  0  0  0  0  0  0  0  0  0
    5.4491  -19.5032   17.7449 C   0  0  0  0  0  0  0  0  0  0  0  0
    5.4150  -18.4632   17.0023 O   0  0  0  0  0  0  0  0  0  0  0  0
    5.6891  -20.7841   17.1004 C   0  0  0  0  0  0  0  0  0  0  0  0
    5.6683  -21.8860   18.0173 N   0  0  0  0  0  0  0  0  0  0  0  0
    5.9556  -23.1890   17.4666 C   0  0  0  0  0  0  0  0  0  0  0  0
    6.2230  -23.2884   16.2367 O   0  0  0  0  0  0  0  0  0  0  0  0
    5.9234  -24.3635   18.3876 C   0  0  1  0  0  0  0  0  0  0  0  0
    5.4344  -23.9429   19.6968 N   0  0  0  0  0  0  0  0  0  0  0  0
    4.0555  -23.6748   19.7859 C   0  0  0  0  0  0  0  0  0  0  0  0
    3.2403  -23.7924   18.8253 O   0  0  0  0  0  0  0  0  0  0  0  0
    3.3837  -23.1952   21.0721 C   0  0  2  0  0  0  0  0  0  0  0  0
    3.6299  -24.1928   22.1165 C   0  0  0  0  0  0  0  0  0  0  0  0
    1.9752  -22.9783   20.7578 N   0  0  0  0  0  0  0  0  0  0  0  0
    1.7703  -21.8444   19.8627 C   0  0  0  0  0  0  0  0  0  0  0  0
    2.8475  -21.2754   19.5332 O   0  0  0  0  0  0  0  0  0  0  0  0
    0.4318  -21.4439   19.4110 C   0  0  2  0  0  0  0  0  0  0  0  0
   -0.4815  -22.5879   19.1467 C   0  0  0  0  0  0  0  0  0  0  0  0
   -1.5017  -21.9516   18.1875 C   0  0  0  0  0  0  0  0  0  0  0  0
   -0.6014  -21.1098   17.2720 C   0  0  0  0  0  0  0  0  0  0  0  0
    0.4174  -20.6407   18.2374 N   0  0  0  0  0  0  0  0  0  0  0  0
    1.2415  -19.5146   17.9067 C   0  0  0  0  0  0  0  0  0  0  0  0
    2.1074  -19.0394   18.6765 O   0  0  0  0  0  0  0  0  0  0  0  0
    1.1133  -18.8134   16.5773 C   0  0  2  0  0  0  0  0  0  0  0  0
    1.1479  -19.7109   15.4053 C   0  0  0  0  0  0  0  0  0  0  0  0
    2.0681  -17.7356   16.4308 N   0  0  0  0  0  0  0  0  0  0  0  0
    1.7621  -16.4983   17.0185 C   0  0  0  0  0  0  0  0  0  0  0  0
    0.6511  -16.4612   17.6797 O   0  0  0  0  0  0  0  0  0  0  0  0
    2.5220  -15.2644   16.9776 C   0  0  2  0  0  0  0  0  0  0  0  0
    1.5026  -14.2079   16.3729 C   0  0  0  0  0  0  0  0  0  0  0  0
    2.0853  -12.9515   16.3637 O   0  0  0  0  0  0  0  0  0  0  0  0
    3.6342  -15.1819   16.0840 N   0  0  0  0  0  0  0  0  0  0  0  0
    4.6009  -14.1605   16.2874 C   0  0  0  0  0  0  0  0  0  0  0  0
    4.4481  -13.3767   17.2957 O   0  0  0  0  0  0  0  0  0  0  0  0
    5.7617  -13.8931   15.4413 C   0  0  2  0  0  0  0  0  0  0  0  0
    6.9317  -14.8091   15.4985 C   0  0  0  0  0  0  0  0  0  0  0  0
    7.6199  -14.9240   16.8256 C   0  0  0  0  0  0  0  0  0  0  0  0
    8.8541  -15.7717   16.8176 C   0  0  0  0  0  0  0  0  0  0  0  0
    8.5920  -17.1789   16.4364 C   0  0  0  0  0  0  0  0  0  0  0  0
    9.8256  -17.9773   16.4141 N   0  0  0  0  0  0  0  0  0  0  0  0
    9.4234  -19.3650   16.4924 C   0  0  0  0  0  0  0  0  0  0  0  0
   10.6367  -17.6838   17.5861 C   0  0  0  0  0  0  0  0  0  0  0  0
   10.5755  -17.7608   15.2034 C   0  0  0  0  0  0  0  0  0  0  0  0
    6.2720  -12.5325   15.7592 N   0  0  0  0  0  0  0  0  0  0  0  0
    5.8639  -11.3908   15.0228 C   0  0  0  0  0  0  0  0  0  0  0  0
    5.0387  -11.4559   14.0525 O   0  0  0  0  0  0  0  0  0  0  0  0
    6.4436  -10.0379   15.4224 C   0  0  2  0  0  0  0  0  0  0  0  0
    6.8286   -9.2219   14.2513 C   0  0  0  0  0  0  0  0  0  0  0  0
    7.3175   -7.8731   14.5916 C   0  0  0  0  0  0  0  0  0  0  0  0
    6.1917   -7.0896   15.2973 C   0  0  0  0  0  0  0  0  0  0  0  0
    6.6858   -5.7520   15.6200 N   0  0  0  0  0  0  0  0  0  0  0  0
    5.9208   -4.7716   16.2938 C   0  0  0  0  0  0  0  0  0  0  0  0
    6.4680   -3.4913   16.5770 N   0  0  0  0  0  0  0  0  0  0  0  0
    4.6995   -5.0498   16.6587 N   0  0  0  0  0  0  0  0  0  0  0  0
    7.4488  -10.2830   16.4246 N   0  0  0  0  0  0  0  0  0  0  0  0
    8.8338  -10.1893   16.3319 C   0  0  0  0  0  0  0  0  0  0  0  0
    9.5426   -9.8679   15.3748 O   0  0  0  0  0  0  0  0  0  0  0  0
    9.5907  -10.5393   17.6066 C   0  0  2  0  0  0  0  0  0  0  0  0
    8.9906   -9.8105   18.7705 C   0  0  0  0  0  0  0  0  0  0  0  0
   10.9888  -10.2689   17.5355 N   0  0  0  0  0  0  0  0  0  0  0  0
   12.0068  -11.2439   17.3188 C   0  0  0  0  0  0  0  0  0  0  0  0
   11.6004  -12.4311   17.1486 O   0  0  0  0  0  0  0  0  0  0  0  0
   13.4348  -10.9853   17.2900 C   0  0  2  0  0  0  0  0  0  0  0  0
   13.9845  -11.7920   18.5617 C   0  0  0  0  0  0  0  0  0  0  0  0
   13.8416   -9.6290   17.4962 N   0  0  0  0  0  0  0  0  0  0  0  0
   15.1076   -9.2090   17.9587 C   0  0  0  0  0  0  0  0  0  0  0  0
   16.0578   -9.9852   18.2478 O   0  0  0  0  0  0  0  0  0  0  0  0
   15.4301   -7.7338   18.1722 C   0  0  2  0  0  0  0  0  0  0  0  0
   16.2591   -7.1732   17.1002 C   0  0  0  0  0  0  0  0  0  0  0  0
   15.6654   -7.2126   15.7420 C   0  0  0  0  0  0  0  0  0  0  0  0
   14.3978   -6.4075   15.6438 C   0  0  0  0  0  0  0  0  0  0  0  0
   13.9280   -6.5454   14.1905 C   0  0  0  0  0  0  0  0  0  0  0  0
   13.7109   -7.9619   13.9545 N   0  0  0  0  0  0  0  0  0  0  0  0
   16.1686   -7.7561   19.4654 N   0  0  0  0  0  0  0  0  0  0  0  0
   15.3368   -7.7861   20.5897 C   0  0  0  0  0  0  0  0  0  0  0  0
   14.0644   -7.7948   20.3379 O   0  0  0  0  0  0  0  0  0  0  0  0
   15.6941   -7.8113   22.0102 C   0  0  1  0  0  0  0  0  0  0  0  0
   14.4482   -7.9981   22.7808 N   0  0  0  0  0  0  0  0  0  0  0  0
   13.8521   -7.0127   23.5768 C   0  0  0  0  0  0  0  0  0  0  0  0
   14.3052   -5.8541   23.7413 O   0  0  0  0  0  0  0  0  0  0  0  0
   12.5700   -7.4082   24.2711 C   0  0  2  0  0  0  0  0  0  0  0  0
   11.5401   -7.8226   23.2329 C   0  0  0  0  0  0  0  0  0  0  0  0
   12.0440   -6.2957   25.0062 N   0  0  0  0  0  0  0  0  0  0  0  0
   16.6940   -8.8619   22.3624 C   0  0  1  0  0  0  0  0  0  0  0  0
   16.0970  -10.2459   22.0861 C   0  0  0  0  0  0  0  0  0  0  0  0
   17.8967   -8.7190   21.6557 O   0  0  0  0  0  0  0  0  0  0  0  0
    5.1615  -25.5035   17.7836 C   0  0  1  0  0  0  0  0  0  0  0  0
    5.9777  -25.9266   16.5442 C   0  0  0  0  0  0  0  0  0  0  0  0
    5.2291  -26.6063   18.6416 O   0  0  0  0  0  0  0  0  0  0  0  0
    3.4687  -14.7744   22.8505 C   0  0  0  0  0  0  0  0  0  0  0  0
    3.2026  -14.2593   23.9637 O   0  0  0  0  0  0  0  0  0  0  0  0
    2.7806  -14.2325   21.7054 N   0  0  0  0  0  0  0  0  0  0  0  0
    1.8457  -13.1061   21.9269 C   0  0  1  0  0  0  0  0  0  0  0  0
    2.1759  -12.0609   20.9091 C   0  0  0  0  0  0  0  0  0  0  0  0
    1.3054  -10.8560   21.0519 C   0  0  0  0  0  0  0  0  0  0  0  0
    1.5868   -9.7997   20.0166 C   0  0  0  0  0  0  0  0  0  0  0  0
    2.9927   -9.3287   20.0994 C   0  0  0  0  0  0  0  0  0  0  0  0
    3.2871   -8.2906   19.1165 N   0  0  0  0  0  0  0  0  0  0  0  0
    0.4579  -13.6012   21.7287 C   0  0  0  0  0  0  0  0  0  0  0  0
    0.2399  -14.6724   21.1073 O   0  0  0  0  0  0  0  0  0  0  0  0
   -0.6636  -12.9259   22.2071 O   0  0  0  0  0  0  0  0  0  0  0  0
  1  2  1  0
  2  3  1  0
  2  4  1  0
  4  5  1  6
  5  6  1  0
  6  7  2  0
  6  8  1  0
  8  9  1  0
  9 10  1  0
 10 11  2  0
 10 12  1  0
 12 13  1  0
 13 14  1  0
 14 15  2  0
 14 16  1  0
 16 17  1  1
 17 18  1  0
 18 19  2  0
 18 20  1  0
 20 21  1  1
 20 22  1  0
 22 23  1  0
 23 24  2  0
 25 23  1  6
 25 26  1  0
 26 27  1  0
 27 28  1  0
 28 29  1  0
 29 30  1  0
 30 31  2  0
 30 32  1  0
 32 33  1  6
 32 34  1  0
 34 35  1  0
 35 36  2  0
 35 37  1  0
 37 38  1  6
 38 39  1  0
 37 40  1  0
 40 41  1  0
 41 42  2  0
 41 43  1  0
 43 44  1  1
 44 45  1  0
 45 46  1  0
 46 47  1  0
 47 48  1  0
 48 49  1  0
 48 50  1  0
 48 51  1  0
 43 52  1  0
 52 53  1  0
 53 54  2  0
 53 55  1  0
 55 56  1  6
 56 57  1  0
 57 58  1  0
 58 59  1  0
 59 60  1  0
 60 61  1  0
 60 62  2  0
 55 63  1  0
 63 64  1  0
 64 65  2  0
 64 66  1  0
 66 67  1  1
 66 68  1  0
 68 69  1  0
 69 70  2  0
 69 71  1  0
 71 72  1  1
 71 73  1  0
 73 74  1  0
 74 75  2  0
 74 76  1  0
 76 77  1  6
 77 78  1  0
 78 79  1  0
 79 80  1  0
 80 81  1  0
 76 82  1  0
 82 83  1  0
 83 84  2  0
 83 85  1  0
 85 86  1  1
 86 87  1  0
 87 88  2  0
 87 89  1  0
 89 90  1  6
 89 91  1  0
 85 92  1  0
 92 93  1  6
 92 94  1  0
 16 95  1  0
 95 96  1  6
 95 97  1  0
  4 98  1  0
 98 99  2  0
 98100  1  0
100101  1  0
101102  1  6
102103  1  0
103104  1  0
104105  1  0
105106  1  0
101107  1  0
107108  2  0
107109  1  0
 29 25  1  0
M  CHG  6  48   1  62   1  81   1  91   1 106   1 109  -1
M  END
>  <shape_align_shape_tanimoto>  (1) 
0.29044779230145018

>  <shape_align_color_tanimoto>  (1) 
0.0043768568306497124

>  <metric>  (1) 
shape

>  <metric_score>  (1) 
0.290

>  <template_pid>  (1) 
5ZNR

>  <template_shape_score>  (1) 
0.290

>  <template_color_score>  (1) 
0.004

>  <template_combo_score>  (1) 
0.147

$$$$
5ZNR_color_pose
     RDKit          3D

109109  0  0  0  0  0  0  0  0999 V2000
    5.2614   -6.1989   18.9760 C   0  0  0  0  0  0  0  0  0  0  0  0
    5.9625   -6.1906   17.6351 C   0  0  0  0  0  0  0  0  0  0  0  0
    6.4928   -4.8015   17.3947 C   0  0  0  0  0  0  0  0  0  0  0  0
    7.0818   -7.1901   17.6323 C   0  0  2  0  0  0  0  0  0  0  0  0
    8.0381   -6.8596   18.6559 N   0  0  0  0  0  0  0  0  0  0  0  0
    8.3084   -7.5239   19.8451 C   0  0  0  0  0  0  0  0  0  0  0  0
    7.6226   -8.5805   20.0961 O   0  0  0  0  0  0  0  0  0  0  0  0
    9.2964   -7.1597   20.8733 C   0  0  0  0  0  0  0  0  0  0  0  0
   10.1005   -5.9942   20.5740 N   0  0  0  0  0  0  0  0  0  0  0  0
   11.0201   -5.5894   21.5693 C   0  0  0  0  0  0  0  0  0  0  0  0
   11.0052   -6.2981   22.6434 O   0  0  0  0  0  0  0  0  0  0  0  0
   11.9691   -4.4832   21.5356 C   0  0  0  0  0  0  0  0  0  0  0  0
   12.0392   -3.7497   20.2917 N   0  0  0  0  0  0  0  0  0  0  0  0
   12.4377   -4.4744   19.1570 C   0  0  0  0  0  0  0  0  0  0  0  0
   12.6934   -5.7182   19.3597 O   0  0  0  0  0  0  0  0  0  0  0  0
   12.5999   -4.0089   17.7810 C   0  0  1  0  0  0  0  0  0  0  0  0
   12.8891   -5.2128   16.9928 N   0  0  0  0  0  0  0  0  0  0  0  0
   13.8021   -5.2826   15.9261 C   0  0  0  0  0  0  0  0  0  0  0  0
   14.4371   -4.2544   15.5573 O   0  0  0  0  0  0  0  0  0  0  0  0
   13.9777   -6.6118   15.2646 C   0  0  2  0  0  0  0  0  0  0  0  0
   13.4516   -6.5085   13.8580 C   0  0  0  0  0  0  0  0  0  0  0  0
   13.3209   -7.6598   16.0394 N   0  0  0  0  0  0  0  0  0  0  0  0
   14.1187   -8.7649   16.5326 C   0  0  0  0  0  0  0  0  0  0  0  0
   15.3367   -8.7942   16.2395 O   0  0  0  0  0  0  0  0  0  0  0  0
   13.4162   -9.7751   17.3527 C   0  0  2  0  0  0  0  0  0  0  0  0
   13.7258   -9.3225   18.8141 C   0  0  0  0  0  0  0  0  0  0  0  0
   15.2099   -9.6549   18.8877 C   0  0  0  0  0  0  0  0  0  0  0  0
   15.4085  -10.8293   17.9425 C   0  0  0  0  0  0  0  0  0  0  0  0
   14.0863  -11.0642   17.4105 N   0  0  0  0  0  0  0  0  0  0  0  0
   13.4400  -12.2573   16.9947 C   0  0  0  0  0  0  0  0  0  0  0  0
   12.2261  -12.2589   16.5739 O   0  0  0  0  0  0  0  0  0  0  0  0
   14.0733  -13.6023   16.9995 C   0  0  2  0  0  0  0  0  0  0  0  0
   15.0955  -13.5726   15.8445 C   0  0  0  0  0  0  0  0  0  0  0  0
   13.0805  -14.6238   16.7302 N   0  0  0  0  0  0  0  0  0  0  0  0
   13.2083  -16.0005   17.0038 C   0  0  0  0  0  0  0  0  0  0  0  0
   14.2937  -16.4133   17.5026 O   0  0  0  0  0  0  0  0  0  0  0  0
   12.0721  -16.9538   16.7063 C   0  0  2  0  0  0  0  0  0  0  0  0
   12.3884  -17.7205   15.4370 C   0  0  0  0  0  0  0  0  0  0  0  0
   12.5722  -16.9209   14.3329 O   0  0  0  0  0  0  0  0  0  0  0  0
   10.8513  -16.2061   16.5145 N   0  0  0  0  0  0  0  0  0  0  0  0
    9.7011  -16.6481   17.2716 C   0  0  0  0  0  0  0  0  0  0  0  0
    9.7878  -17.6812   18.0174 O   0  0  0  0  0  0  0  0  0  0  0  0
    8.4569  -15.9392   17.2028 C   0  0  2  0  0  0  0  0  0  0  0  0
    8.5652  -14.8837   18.3931 C   0  0  0  0  0  0  0  0  0  0  0  0
    9.7451  -14.0275   18.1067 C   0  0  0  0  0  0  0  0  0  0  0  0
    9.9076  -12.9520   19.1966 C   0  0  0  0  0  0  0  0  0  0  0  0
   10.0865  -13.6229   20.5323 C   0  0  0  0  0  0  0  0  0  0  0  0
   10.2525  -12.6170   21.5528 N   0  0  0  0  0  0  0  0  0  0  0  0
    9.8318  -13.1497   22.8417 C   0  0  0  0  0  0  0  0  0  0  0  0
    9.4080  -11.4971   21.2407 C   0  0  0  0  0  0  0  0  0  0  0  0
   11.6364  -12.2071   21.6133 C   0  0  0  0  0  0  0  0  0  0  0  0
    7.2583  -16.6598   17.6243 N   0  0  0  0  0  0  0  0  0  0  0  0
    6.0419  -16.0237   17.3573 C   0  0  0  0  0  0  0  0  0  0  0  0
    6.0974  -14.8797   16.7658 O   0  0  0  0  0  0  0  0  0  0  0  0
    4.6717  -16.4745   17.6682 C   0  0  2  0  0  0  0  0  0  0  0  0
    4.2415  -17.7210   16.9786 C   0  0  0  0  0  0  0  0  0  0  0  0
    2.8642  -18.2400   17.3314 C   0  0  0  0  0  0  0  0  0  0  0  0
    2.7479  -18.5282   18.8130 C   0  0  0  0  0  0  0  0  0  0  0  0
    1.4363  -19.0033   19.1104 N   0  0  0  0  0  0  0  0  0  0  0  0
    0.8923  -20.2642   18.7958 C   0  0  0  0  0  0  0  0  0  0  0  0
   -0.4642  -20.5372   19.2067 N   0  0  0  0  0  0  0  0  0  0  0  0
    1.5495  -21.1691   18.1827 N   0  0  0  0  0  0  0  0  0  0  0  0
    3.9082  -15.2786   17.4033 N   0  0  0  0  0  0  0  0  0  0  0  0
    2.9669  -14.8954   16.4993 C   0  0  0  0  0  0  0  0  0  0  0  0
    2.5088  -15.6277   15.5750 O   0  0  0  0  0  0  0  0  0  0  0  0
    2.3610  -13.4968   16.5137 C   0  0  2  0  0  0  0  0  0  0  0  0
    2.6148  -12.9389   15.1099 C   0  0  0  0  0  0  0  0  0  0  0  0
    3.1124  -12.7633   17.4975 N   0  0  0  0  0  0  0  0  0  0  0  0
    2.5916  -12.0339   18.5768 C   0  0  0  0  0  0  0  0  0  0  0  0
    1.3350  -11.9144   18.7923 O   0  0  0  0  0  0  0  0  0  0  0  0
    3.5400  -11.3905   19.4952 C   0  0  2  0  0  0  0  0  0  0  0  0
    4.0913  -12.6151   20.3355 C   0  0  0  0  0  0  0  0  0  0  0  0
    2.9433  -10.5493   20.5151 N   0  0  0  0  0  0  0  0  0  0  0  0
    3.8239  -10.0461   21.4981 C   0  0  0  0  0  0  0  0  0  0  0  0
    5.0579  -10.3900   21.3977 O   0  0  0  0  0  0  0  0  0  0  0  0
    3.4923   -9.1807   22.6278 C   0  0  2  0  0  0  0  0  0  0  0  0
    3.5226   -7.7419   22.1758 C   0  0  0  0  0  0  0  0  0  0  0  0
    3.1795   -6.8090   23.3068 C   0  0  0  0  0  0  0  0  0  0  0  0
    3.2473   -5.3716   22.8567 C   0  0  0  0  0  0  0  0  0  0  0  0
    2.8995   -4.4102   23.9734 C   0  0  0  0  0  0  0  0  0  0  0  0
    2.9934   -3.0604   23.4301 N   0  0  0  0  0  0  0  0  0  0  0  0
    4.5072   -9.4520   23.6350 N   0  0  0  0  0  0  0  0  0  0  0  0
    4.1730   -9.6687   24.9959 C   0  0  0  0  0  0  0  0  0  0  0  0
    2.9713   -9.6031   25.4312 O   0  0  0  0  0  0  0  0  0  0  0  0
    5.2972   -9.9903   25.9157 C   0  0  1  0  0  0  0  0  0  0  0  0
    4.8501  -10.0399   27.2742 N   0  0  0  0  0  0  0  0  0  0  0  0
    5.5187   -9.2765   28.2669 C   0  0  0  0  0  0  0  0  0  0  0  0
    6.5045   -8.5819   27.8349 O   0  0  0  0  0  0  0  0  0  0  0  0
    5.1879   -9.2251   29.6857 C   0  0  2  0  0  0  0  0  0  0  0  0
    6.2806   -9.9430   30.4832 C   0  0  0  0  0  0  0  0  0  0  0  0
    3.9665   -9.9168   29.9766 N   0  0  0  0  0  0  0  0  0  0  0  0
    5.8434  -11.3818   25.5727 C   0  0  1  0  0  0  0  0  0  0  0  0
    7.0915  -11.6504   26.3672 C   0  0  0  0  0  0  0  0  0  0  0  0
    4.8613  -12.3505   25.7333 O   0  0  0  0  0  0  0  0  0  0  0  0
   11.4443   -3.2145   17.2355 C   0  0  1  0  0  0  0  0  0  0  0  0
   10.1722   -4.0063   17.1192 C   0  0  0  0  0  0  0  0  0  0  0  0
   11.2581   -2.0817   18.0432 O   0  0  0  0  0  0  0  0  0  0  0  0
    7.7985   -7.2515   16.3534 C   0  0  0  0  0  0  0  0  0  0  0  0
    9.0770   -7.3505   16.3796 O   0  0  0  0  0  0  0  0  0  0  0  0
    7.1997   -7.2043   15.0869 N   0  0  0  0  0  0  0  0  0  0  0  0
    7.8904   -7.2669   13.8244 C   0  0  1  0  0  0  0  0  0  0  0  0
    7.0181   -7.3108   12.6287 C   0  0  0  0  0  0  0  0  0  0  0  0
    6.0698   -8.4802   12.5151 C   0  0  0  0  0  0  0  0  0  0  0  0
    5.2376   -8.3222   11.2283 C   0  0  0  0  0  0  0  0  0  0  0  0
    4.2694   -9.4297   11.0105 C   0  0  0  0  0  0  0  0  0  0  0  0
    3.2988   -9.5831   12.0549 N   0  0  0  0  0  0  0  0  0  0  0  0
    8.6963   -5.9551   13.6803 C   0  0  0  0  0  0  0  0  0  0  0  0
    9.7172   -5.8131   14.3817 O   0  0  0  0  0  0  0  0  0  0  0  0
    8.2898   -4.9801   12.8004 O   0  0  0  0  0  0  0  0  0  0  0  0
  1  2  1  0
  2  3  1  0
  2  4  1  0
  4  5  1  1
  5  6  1  0
  6  7  2  0
  6  8  1  0
  8  9  1  0
  9 10  1  0
 10 11  2  0
 10 12  1  0
 12 13  1  0
 13 14  1  0
 14 15  2  0
 14 16  1  0
 16 17  1  6
 17 18  1  0
 18 19  2  0
 18 20  1  0
 20 21  1  6
 20 22  1  0
 22 23  1  0
 23 24  2  0
 25 23  1  6
 25 26  1  0
 26 27  1  0
 27 28  1  0
 28 29  1  0
 29 30  1  0
 30 31  2  0
 30 32  1  0
 32 33  1  6
 32 34  1  0
 34 35  1  0
 35 36  2  0
 35 37  1  0
 37 38  1  6
 38 39  1  0
 37 40  1  0
 40 41  1  0
 41 42  2  0
 41 43  1  0
 43 44  1  1
 44 45  1  0
 45 46  1  0
 46 47  1  0
 47 48  1  0
 48 49  1  0
 48 50  1  0
 48 51  1  0
 43 52  1  0
 52 53  1  0
 53 54  2  0
 53 55  1  0
 55 56  1  6
 56 57  1  0
 57 58  1  0
 58 59  1  0
 59 60  1  0
 60 61  1  0
 60 62  2  0
 55 63  1  0
 63 64  1  0
 64 65  2  0
 64 66  1  0
 66 67  1  6
 66 68  1  0
 68 69  1  0
 69 70  2  0
 69 71  1  0
 71 72  1  1
 71 73  1  0
 73 74  1  0
 74 75  2  0
 74 76  1  0
 76 77  1  6
 77 78  1  0
 78 79  1  0
 79 80  1  0
 80 81  1  0
 76 82  1  0
 82 83  1  0
 83 84  2  0
 83 85  1  0
 85 86  1  1
 86 87  1  0
 87 88  2  0
 87 89  1  0
 89 90  1  1
 89 91  1  0
 85 92  1  0
 92 93  1  1
 92 94  1  0
 16 95  1  0
 95 96  1  1
 95 97  1  0
  4 98  1  0
 98 99  2  0
 98100  1  0
100101  1  0
101102  1  6
102103  1  0
103104  1  0
104105  1  0
105106  1  0
101107  1  0
107108  2  0
107109  1  0
 29 25  1  0
M  CHG  6  48   1  62   1  81   1  91   1 106   1 109  -1
M  END
>  <shape_align_shape_tanimoto>  (2) 
0.21129744524335201

>  <shape_align_color_tanimoto>  (2) 
0.049101775650289003

>  <metric>  (2) 
color

>  <metric_score>  (2) 
0.049

>  <template_pid>  (2) 
5ZNR

>  <template_shape_score>  (2) 
0.211

>  <template_color_score>  (2) 
0.049

>  <template_combo_score>  (2) 
0.130

$$$$
5ZNR_combo_pose
     RDKit          3D

109109  0  0  0  0  0  0  0  0999 V2000
    5.6293  -14.9599   24.6897 C   0  0  0  0  0  0  0  0  0  0  0  0
    5.8176  -15.3970   23.2649 C   0  0  0  0  0  0  0  0  0  0  0  0
    6.7928  -16.5294   23.1013 C   0  0  0  0  0  0  0  0  0  0  0  0
    4.4509  -15.8902   22.7237 C   0  0  2  0  0  0  0  0  0  0  0  0
    4.6809  -16.2963   21.3632 N   0  0  0  0  0  0  0  0  0  0  0  0
    4.8320  -17.6700   20.9526 C   0  0  0  0  0  0  0  0  0  0  0  0
    4.7733  -18.6148   21.7929 O   0  0  0  0  0  0  0  0  0  0  0  0
    5.0569  -17.8709   19.5057 C   0  0  0  0  0  0  0  0  0  0  0  0
    5.2475  -19.2626   19.1282 N   0  0  0  0  0  0  0  0  0  0  0  0
    5.4491  -19.5032   17.7449 C   0  0  0  0  0  0  0  0  0  0  0  0
    5.4150  -18.4632   17.0023 O   0  0  0  0  0  0  0  0  0  0  0  0
    5.6891  -20.7841   17.1004 C   0  0  0  0  0  0  0  0  0  0  0  0
    5.6683  -21.8860   18.0173 N   0  0  0  0  0  0  0  0  0  0  0  0
    5.9556  -23.1890   17.4666 C   0  0  0  0  0  0  0  0  0  0  0  0
    6.2230  -23.2884   16.2367 O   0  0  0  0  0  0  0  0  0  0  0  0
    5.9234  -24.3635   18.3876 C   0  0  1  0  0  0  0  0  0  0  0  0
    5.4344  -23.9429   19.6968 N   0  0  0  0  0  0  0  0  0  0  0  0
    4.0555  -23.6748   19.7859 C   0  0  0  0  0  0  0  0  0  0  0  0
    3.2403  -23.7924   18.8253 O   0  0  0  0  0  0  0  0  0  0  0  0
    3.3837  -23.1952   21.0721 C   0  0  2  0  0  0  0  0  0  0  0  0
    3.6299  -24.1928   22.1165 C   0  0  0  0  0  0  0  0  0  0  0  0
    1.9752  -22.9783   20.7578 N   0  0  0  0  0  0  0  0  0  0  0  0
    1.7703  -21.8444   19.8627 C   0  0  0  0  0  0  0  0  0  0  0  0
    2.8475  -21.2754   19.5332 O   0  0  0  0  0  0  0  0  0  0  0  0
    0.4318  -21.4439   19.4110 C   0  0  2  0  0  0  0  0  0  0  0  0
   -0.4815  -22.5879   19.1467 C   0  0  0  0  0  0  0  0  0  0  0  0
   -1.5017  -21.9516   18.1875 C   0  0  0  0  0  0  0  0  0  0  0  0
   -0.6014  -21.1098   17.2720 C   0  0  0  0  0  0  0  0  0  0  0  0
    0.4174  -20.6407   18.2374 N   0  0  0  0  0  0  0  0  0  0  0  0
    1.2415  -19.5146   17.9067 C   0  0  0  0  0  0  0  0  0  0  0  0
    2.1074  -19.0394   18.6765 O   0  0  0  0  0  0  0  0  0  0  0  0
    1.1133  -18.8134   16.5773 C   0  0  2  0  0  0  0  0  0  0  0  0
    1.1479  -19.7109   15.4053 C   0  0  0  0  0  0  0  0  0  0  0  0
    2.0681  -17.7356   16.4308 N   0  0  0  0  0  0  0  0  0  0  0  0
    1.7621  -16.4983   17.0185 C   0  0  0  0  0  0  0  0  0  0  0  0
    0.6511  -16.4612   17.6797 O   0  0  0  0  0  0  0  0  0  0  0  0
    2.5220  -15.2644   16.9776 C   0  0  2  0  0  0  0  0  0  0  0  0
    1.5026  -14.2079   16.3729 C   0  0  0  0  0  0  0  0  0  0  0  0
    2.0853  -12.9515   16.3637 O   0  0  0  0  0  0  0  0  0  0  0  0
    3.6342  -15.1819   16.0840 N   0  0  0  0  0  0  0  0  0  0  0  0
    4.6009  -14.1605   16.2874 C   0  0  0  0  0  0  0  0  0  0  0  0
    4.4481  -13.3767   17.2957 O   0  0  0  0  0  0  0  0  0  0  0  0
    5.7617  -13.8931   15.4413 C   0  0  2  0  0  0  0  0  0  0  0  0
    6.9317  -14.8091   15.4985 C   0  0  0  0  0  0  0  0  0  0  0  0
    7.6199  -14.9240   16.8256 C   0  0  0  0  0  0  0  0  0  0  0  0
    8.8541  -15.7717   16.8176 C   0  0  0  0  0  0  0  0  0  0  0  0
    8.5920  -17.1789   16.4364 C   0  0  0  0  0  0  0  0  0  0  0  0
    9.8256  -17.9773   16.4141 N   0  0  0  0  0  0  0  0  0  0  0  0
    9.4234  -19.3650   16.4924 C   0  0  0  0  0  0  0  0  0  0  0  0
   10.6367  -17.6838   17.5861 C   0  0  0  0  0  0  0  0  0  0  0  0
   10.5755  -17.7608   15.2034 C   0  0  0  0  0  0  0  0  0  0  0  0
    6.2720  -12.5325   15.7592 N   0  0  0  0  0  0  0  0  0  0  0  0
    5.8639  -11.3908   15.0228 C   0  0  0  0  0  0  0  0  0  0  0  0
    5.0387  -11.4559   14.0525 O   0  0  0  0  0  0  0  0  0  0  0  0
    6.4436  -10.0379   15.4224 C   0  0  2  0  0  0  0  0  0  0  0  0
    6.8286   -9.2219   14.2513 C   0  0  0  0  0  0  0  0  0  0  0  0
    7.3175   -7.8731   14.5916 C   0  0  0  0  0  0  0  0  0  0  0  0
    6.1917   -7.0896   15.2973 C   0  0  0  0  0  0  0  0  0  0  0  0
    6.6858   -5.7520   15.6200 N   0  0  0  0  0  0  0  0  0  0  0  0
    5.9208   -4.7716   16.2938 C   0  0  0  0  0  0  0  0  0  0  0  0
    6.4680   -3.4913   16.5770 N   0  0  0  0  0  0  0  0  0  0  0  0
    4.6995   -5.0498   16.6587 N   0  0  0  0  0  0  0  0  0  0  0  0
    7.4488  -10.2830   16.4246 N   0  0  0  0  0  0  0  0  0  0  0  0
    8.8338  -10.1893   16.3319 C   0  0  0  0  0  0  0  0  0  0  0  0
    9.5426   -9.8679   15.3748 O   0  0  0  0  0  0  0  0  0  0  0  0
    9.5907  -10.5393   17.6066 C   0  0  2  0  0  0  0  0  0  0  0  0
    8.9906   -9.8105   18.7705 C   0  0  0  0  0  0  0  0  0  0  0  0
   10.9888  -10.2689   17.5355 N   0  0  0  0  0  0  0  0  0  0  0  0
   12.0068  -11.2439   17.3188 C   0  0  0  0  0  0  0  0  0  0  0  0
   11.6004  -12.4311   17.1486 O   0  0  0  0  0  0  0  0  0  0  0  0
   13.4348  -10.9853   17.2900 C   0  0  2  0  0  0  0  0  0  0  0  0
   13.9845  -11.7920   18.5617 C   0  0  0  0  0  0  0  0  0  0  0  0
   13.8416   -9.6290   17.4962 N   0  0  0  0  0  0  0  0  0  0  0  0
   15.1076   -9.2090   17.9587 C   0  0  0  0  0  0  0  0  0  0  0  0
   16.0578   -9.9852   18.2478 O   0  0  0  0  0  0  0  0  0  0  0  0
   15.4301   -7.7338   18.1722 C   0  0  2  0  0  0  0  0  0  0  0  0
   16.2591   -7.1732   17.1002 C   0  0  0  0  0  0  0  0  0  0  0  0
   15.6654   -7.2126   15.7420 C   0  0  0  0  0  0  0  0  0  0  0  0
   14.3978   -6.4075   15.6438 C   0  0  0  0  0  0  0  0  0  0  0  0
   13.9280   -6.5454   14.1905 C   0  0  0  0  0  0  0  0  0  0  0  0
   13.7109   -7.9619   13.9545 N   0  0  0  0  0  0  0  0  0  0  0  0
   16.1686   -7.7561   19.4654 N   0  0  0  0  0  0  0  0  0  0  0  0
   15.3368   -7.7861   20.5897 C   0  0  0  0  0  0  0  0  0  0  0  0
   14.0644   -7.7948   20.3379 O   0  0  0  0  0  0  0  0  0  0  0  0
   15.6941   -7.8113   22.0102 C   0  0  1  0  0  0  0  0  0  0  0  0
   14.4482   -7.9981   22.7808 N   0  0  0  0  0  0  0  0  0  0  0  0
   13.8521   -7.0127   23.5768 C   0  0  0  0  0  0  0  0  0  0  0  0
   14.3052   -5.8541   23.7413 O   0  0  0  0  0  0  0  0  0  0  0  0
   12.5700   -7.4082   24.2711 C   0  0  2  0  0  0  0  0  0  0  0  0
   11.5401   -7.8226   23.2329 C   0  0  0  0  0  0  0  0  0  0  0  0
   12.0440   -6.2957   25.0062 N   0  0  0  0  0  0  0  0  0  0  0  0
   16.6940   -8.8619   22.3624 C   0  0  1  0  0  0  0  0  0  0  0  0
   16.0970  -10.2459   22.0861 C   0  0  0  0  0  0  0  0  0  0  0  0
   17.8967   -8.7190   21.6557 O   0  0  0  0  0  0  0  0  0  0  0  0
    5.1615  -25.5035   17.7836 C   0  0  1  0  0  0  0  0  0  0  0  0
    5.9777  -25.9266   16.5442 C   0  0  0  0  0  0  0  0  0  0  0  0
    5.2291  -26.6063   18.6416 O   0  0  0  0  0  0  0  0  0  0  0  0
    3.4687  -14.7744   22.8505 C   0  0  0  0  0  0  0  0  0  0  0  0
    3.2026  -14.2593   23.9637 O   0  0  0  0  0  0  0  0  0  0  0  0
    2.7806  -14.2325   21.7054 N   0  0  0  0  0  0  0  0  0  0  0  0
    1.8457  -13.1061   21.9269 C   0  0  1  0  0  0  0  0  0  0  0  0
    2.1759  -12.0609   20.9091 C   0  0  0  0  0  0  0  0  0  0  0  0
    1.3054  -10.8560   21.0519 C   0  0  0  0  0  0  0  0  0  0  0  0
    1.5868   -9.7997   20.0166 C   0  0  0  0  0  0  0  0  0  0  0  0
    2.9927   -9.3287   20.0994 C   0  0  0  0  0  0  0  0  0  0  0  0
    3.2871   -8.2906   19.1165 N   0  0  0  0  0  0  0  0  0  0  0  0
    0.4579  -13.6012   21.7287 C   0  0  0  0  0  0  0  0  0  0  0  0
    0.2399  -14.6724   21.1073 O   0  0  0  0  0  0  0  0  0  0  0  0
   -0.6636  -12.9259   22.2071 O   0  0  0  0  0  0  0  0  0  0  0  0
  1  2  1  0
  2  3  1  0
  2  4  1  0
  4  5  1  6
  5  6  1  0
  6  7  2  0
  6  8  1  0
  8  9  1  0
  9 10  1  0
 10 11  2  0
 10 12  1  0
 12 13  1  0
 13 14  1  0
 14 15  2  0
 14 16  1  0
 16 17  1  1
 17 18  1  0
 18 19  2  0
 18 20  1  0
 20 21  1  1
 20 22  1  0
 22 23  1  0
 23 24  2  0
 25 23  1  6
 25 26  1  0
 26 27  1  0
 27 28  1  0
 28 29  1  0
 29 30  1  0
 30 31  2  0
 30 32  1  0
 32 33  1  6
 32 34  1  0
 34 35  1  0
 35 36  2  0
 35 37  1  0
 37 38  1  6
 38 39  1  0
 37 40  1  0
 40 41  1  0
 41 42  2  0
 41 43  1  0
 43 44  1  1
 44 45  1  0
 45 46  1  0
 46 47  1  0
 47 48  1  0
 48 49  1  0
 48 50  1  0
 48 51  1  0
 43 52  1  0
 52 53  1  0
 53 54  2  0
 53 55  1  0
 55 56  1  6
 56 57  1  0
 57 58  1  0
 58 59  1  0
 59 60  1  0
 60 61  1  0
 60 62  2  0
 55 63  1  0
 63 64  1  0
 64 65  2  0
 64 66  1  0
 66 67  1  1
 66 68  1  0
 68 69  1  0
 69 70  2  0
 69 71  1  0
 71 72  1  1
 71 73  1  0
 73 74  1  0
 74 75  2  0
 74 76  1  0
 76 77  1  6
 77 78  1  0
 78 79  1  0
 79 80  1  0
 80 81  1  0
 76 82  1  0
 82 83  1  0
 83 84  2  0
 83 85  1  0
 85 86  1  1
 86 87  1  0
 87 88  2  0
 87 89  1  0
 89 90  1  6
 89 91  1  0
 85 92  1  0
 92 93  1  6
 92 94  1  0
 16 95  1  0
 95 96  1  6
 95 97  1  0
  4 98  1  0
 98 99  2  0
 98100  1  0
100101  1  0
101102  1  6
102103  1  0
103104  1  0
104105  1  0
105106  1  0
101107  1  0
107108  2  0
107109  1  0
 29 25  1  0
M  CHG  6  48   1  62   1  81   1  91   1 106   1 109  -1
M  END
>  <shape_align_shape_tanimoto>  (3) 
0.29044779230145018

>  <shape_align_color_tanimoto>  (3) 
0.0043768568306497124

>  <metric>  (3) 
combo

>  <metric_score>  (3) 
0.147

>  <template_pid>  (3) 
5ZNR

>  <template_shape_score>  (3) 
0.290

>  <template_color_score>  (3) 
0.004

>  <template_combo_score>  (3) 
0.147

$$$$
