5AA8_shape_pose
     RDKit          3D

 30 33  0  0  0  0  0  0  0  0999 V2000
    7.0531   -1.7291   27.3132 C   0  0  0  0  0  0  0  0  0  0  0  0
    6.9408   -1.2229   28.7703 C   0  0  1  0  0  0  0  0  0  0  0  0
    7.2702    0.1666   28.8063 O   0  0  0  0  0  0  0  0  0  0  0  0
    7.7629    0.8331   27.6993 C   0  0  0  0  0  0  0  0  0  0  0  0
    6.8060    1.6152   27.0556 C   0  0  0  0  0  0  0  0  0  0  0  0
    6.9866    2.3427   25.9239 C   0  0  0  0  0  0  0  0  0  0  0  0
    8.2211    2.3500   25.3460 C   0  0  0  0  0  0  0  0  0  0  0  0
    9.1681    1.6150   25.9530 N   0  0  0  0  0  0  0  0  0  0  0  0
    8.9779    0.8658   27.0952 C   0  0  0  0  0  0  0  0  0  0  0  0
   10.0256    0.1108   27.6775 N   0  0  0  0  0  0  0  0  0  0  0  0
    5.7723    2.8791   25.3201 C   0  0  0  0  0  0  0  0  0  0  0  0
    4.5736    2.0380   25.2575 C   0  0  0  0  0  0  0  0  0  0  0  0
    3.6913    2.8572   24.6647 N   0  0  0  0  0  0  0  0  0  0  0  0
    4.2368    4.0268   24.3906 N   0  0  0  0  0  0  0  0  0  0  0  0
    3.5403    5.1178   23.7513 C   0  0  0  0  0  0  0  0  0  0  0  0
    5.5233    4.0733   24.7817 C   0  0  0  0  0  0  0  0  0  0  0  0
    6.5075    5.1167   24.6718 C   0  0  0  0  0  0  0  0  0  0  0  0
    7.2924    5.9755   24.5735 N   0  0  0  0  0  0  0  0  0  0  0  0
    4.7821    0.7451   25.7668 C   0  0  0  0  0  0  0  0  0  0  0  0
    4.2416   -0.2478   26.5629 N   0  0  0  0  0  0  0  0  0  0  0  0
    3.4950   -1.4146   26.0751 C   0  0  0  0  0  0  0  0  0  0  0  0
    4.2892   -0.2260   27.9927 C   0  0  0  0  0  0  0  0  0  0  0  0
    4.2790    0.8520   28.5354 O   0  0  0  0  0  0  0  0  0  0  0  0
    4.3894   -1.3243   28.9358 C   0  0  0  0  0  0  0  0  0  0  0  0
    3.2416   -1.8194   29.4432 C   0  0  0  0  0  0  0  0  0  0  0  0
    3.2885   -2.8120   30.3813 C   0  0  0  0  0  0  0  0  0  0  0  0
    4.5509   -3.2554   30.7613 C   0  0  0  0  0  0  0  0  0  0  0  0
    4.6552   -4.2467   31.6962 F   0  0  0  0  0  0  0  0  0  0  0  0
    5.7183   -2.7403   30.2370 C   0  0  0  0  0  0  0  0  0  0  0  0
    5.6897   -1.7141   29.2653 C   0  0  0  0  0  0  0  0  0  0  0  0
  2  1  1  6
  2  3  1  0
  3  4  1  0
  4  5  1  0
  5  6  2  0
  6  7  1  0
  7  8  2  0
  8  9  1  0
  9 10  1  0
  6 11  1  0
 11 12  1  0
 12 13  2  0
 13 14  1  0
 14 15  1  0
 14 16  1  0
 16 17  1  0
 17 18  3  0
 12 19  1  0
 19 20  1  0
 20 21  1  0
 20 22  1  0
 22 23  2  0
 22 24  1  0
 24 25  2  0
 25 26  1  0
 26 27  2  0
 27 28  1  0
 27 29  1  0
 29 30  2  0
 30  2  1  0
  9  4  2  0
 16 11  2  0
 30 24  1  0
M  END
>  <shape_align_shape_tanimoto>  (1) 
0.59579252359765256

>  <shape_align_color_tanimoto>  (1) 
0.01420465592417902

>  <metric>  (1) 
shape

>  <metric_score>  (1) 
0.596

>  <template_pid>  (1) 
5AA8

>  <template_shape_score>  (1) 
0.596

>  <template_color_score>  (1) 
0.014

>  <template_combo_score>  (1) 
0.305

$$$$
5AA8_color_pose
     RDKit          3D

 30 33  0  0  0  0  0  0  0  0999 V2000
    8.2618    4.3715   24.7841 C   0  0  0  0  0  0  0  0  0  0  0  0
    7.2785    3.3171   25.2093 C   0  0  1  0  0  0  0  0  0  0  0  0
    7.5729    2.9860   26.5715 O   0  0  0  0  0  0  0  0  0  0  0  0
    7.7058    1.6054   26.8062 C   0  0  0  0  0  0  0  0  0  0  0  0
    6.6840    1.0344   27.5178 C   0  0  0  0  0  0  0  0  0  0  0  0
    6.7440   -0.3008   27.7472 C   0  0  0  0  0  0  0  0  0  0  0  0
    7.7847   -1.0839   27.3066 C   0  0  0  0  0  0  0  0  0  0  0  0
    8.7859   -0.5100   26.6162 N   0  0  0  0  0  0  0  0  0  0  0  0
    8.7259    0.8189   26.3799 C   0  0  0  0  0  0  0  0  0  0  0  0
    9.7872    1.3944   25.6547 N   0  0  0  0  0  0  0  0  0  0  0  0
    5.5997   -0.9191   28.4276 C   0  0  0  0  0  0  0  0  0  0  0  0
    4.3081   -0.8449   28.0599 C   0  0  0  0  0  0  0  0  0  0  0  0
    3.6677   -1.6161   29.0618 N   0  0  0  0  0  0  0  0  0  0  0  0
    4.5205   -2.0738   29.9028 N   0  0  0  0  0  0  0  0  0  0  0  0
    4.1958   -2.9001   31.0527 C   0  0  0  0  0  0  0  0  0  0  0  0
    5.7514   -1.6932   29.5908 C   0  0  0  0  0  0  0  0  0  0  0  0
    6.9601   -2.0102   30.2800 C   0  0  0  0  0  0  0  0  0  0  0  0
    7.9462   -2.2824   30.8621 N   0  0  0  0  0  0  0  0  0  0  0  0
    3.5637   -0.2293   26.9948 C   0  0  0  0  0  0  0  0  0  0  0  0
    3.8524    1.0289   26.4390 N   0  0  0  0  0  0  0  0  0  0  0  0
    3.2592    2.2016   27.1137 C   0  0  0  0  0  0  0  0  0  0  0  0
    4.6126    1.4031   25.2981 C   0  0  0  0  0  0  0  0  0  0  0  0
    5.1100    0.5842   24.6363 O   0  0  0  0  0  0  0  0  0  0  0  0
    4.8026    2.8162   24.8813 C   0  0  0  0  0  0  0  0  0  0  0  0
    3.5399    3.2756   24.4133 C   0  0  0  0  0  0  0  0  0  0  0  0
    3.3511    4.5387   23.9628 C   0  0  0  0  0  0  0  0  0  0  0  0
    4.4474    5.3800   23.9737 C   0  0  0  0  0  0  0  0  0  0  0  0
    4.2950    6.6507   23.5328 F   0  0  0  0  0  0  0  0  0  0  0  0
    5.6640    4.9365   24.4219 C   0  0  0  0  0  0  0  0  0  0  0  0
    5.8722    3.6119   24.8943 C   0  0  0  0  0  0  0  0  0  0  0  0
  2  1  1  1
  2  3  1  0
  3  4  1  0
  4  5  1  0
  5  6  2  0
  6  7  1  0
  7  8  2  0
  8  9  1  0
  9 10  1  0
  6 11  1  0
 11 12  1  0
 12 13  2  0
 13 14  1  0
 14 15  1  0
 14 16  1  0
 16 17  1  0
 17 18  3  0
 12 19  1  0
 19 20  1  0
 20 21  1  0
 20 22  1  0
 22 23  2  0
 22 24  1  0
 24 25  2  0
 25 26  1  0
 26 27  2  0
 27 28  1  0
 27 29  1  0
 29 30  2  0
 30  2  1  0
  9  4  2  0
 16 11  2  0
 30 24  1  0
M  END
>  <shape_align_shape_tanimoto>  (2) 
0.54011910197238233

>  <shape_align_color_tanimoto>  (2) 
0.056050238041077768

>  <metric>  (2) 
color

>  <metric_score>  (2) 
0.056

>  <template_pid>  (2) 
5AA8

>  <template_shape_score>  (2) 
0.540

>  <template_color_score>  (2) 
0.056

>  <template_combo_score>  (2) 
0.298

$$$$
5AA8_combo_pose
     RDKit          3D

 30 33  0  0  0  0  0  0  0  0999 V2000
    7.5739   -1.6180   27.6420 C   0  0  0  0  0  0  0  0  0  0  0  0
    6.9965   -0.9027   28.8722 C   0  0  1  0  0  0  0  0  0  0  0  0
    7.1864    0.4943   28.8205 O   0  0  0  0  0  0  0  0  0  0  0  0
    7.5920    1.0583   27.6249 C   0  0  0  0  0  0  0  0  0  0  0  0
    6.5554    1.7314   26.9751 C   0  0  0  0  0  0  0  0  0  0  0  0
    6.7067    2.3323   25.7749 C   0  0  0  0  0  0  0  0  0  0  0  0
    7.9308    2.2963   25.1692 C   0  0  0  0  0  0  0  0  0  0  0  0
    8.9427    1.6627   25.7831 N   0  0  0  0  0  0  0  0  0  0  0  0
    8.7860    1.0488   26.9938 C   0  0  0  0  0  0  0  0  0  0  0  0
    9.8760    0.3938   27.6433 N   0  0  0  0  0  0  0  0  0  0  0  0
    5.4929    2.9172   25.1908 C   0  0  0  0  0  0  0  0  0  0  0  0
    4.2790    2.3426   25.1210 C   0  0  0  0  0  0  0  0  0  0  0  0
    3.5098    3.3601   24.4932 N   0  0  0  0  0  0  0  0  0  0  0  0
    4.2259    4.3832   24.2437 N   0  0  0  0  0  0  0  0  0  0  0  0
    3.7495    5.6010   23.6081 C   0  0  0  0  0  0  0  0  0  0  0  0
    5.4781    4.2063   24.6396 C   0  0  0  0  0  0  0  0  0  0  0  0
    6.5647    5.1284   24.5192 C   0  0  0  0  0  0  0  0  0  0  0  0
    7.4401    5.8949   24.4111 N   0  0  0  0  0  0  0  0  0  0  0  0
    3.6718    1.0870   25.4537 C   0  0  0  0  0  0  0  0  0  0  0  0
    4.1959    0.0593   26.2770 N   0  0  0  0  0  0  0  0  0  0  0  0
    4.9463   -0.9966   25.6391 C   0  0  0  0  0  0  0  0  0  0  0  0
    4.0111   -0.1104   27.6710 C   0  0  0  0  0  0  0  0  0  0  0  0
    3.2923    0.8170   28.1251 O   0  0  0  0  0  0  0  0  0  0  0  0
    4.4516   -1.0893   28.6281 C   0  0  0  0  0  0  0  0  0  0  0  0
    3.3125   -1.8206   29.1119 C   0  0  0  0  0  0  0  0  0  0  0  0
    3.3606   -2.7937   30.0426 C   0  0  0  0  0  0  0  0  0  0  0  0
    4.5799   -3.1217   30.5776 C   0  0  0  0  0  0  0  0  0  0  0  0
    4.6539   -4.0914   31.5106 F   0  0  0  0  0  0  0  0  0  0  0  0
    5.6701   -2.4461   30.1374 C   0  0  0  0  0  0  0  0  0  0  0  0
    5.6529   -1.4160   29.1574 C   0  0  0  0  0  0  0  0  0  0  0  0
  2  1  1  6
  2  3  1  0
  3  4  1  0
  4  5  1  0
  5  6  2  0
  6  7  1  0
  7  8  2  0
  8  9  1  0
  9 10  1  0
  6 11  1  0
 11 12  1  0
 12 13  2  0
 13 14  1  0
 14 15  1  0
 14 16  1  0
 16 17  1  0
 17 18  3  0
 12 19  1  0
 19 20  1  0
 20 21  1  0
 20 22  1  0
 22 23  2  0
 22 24  1  0
 24 25  2  0
 25 26  1  0
 26 27  2  0
 27 28  1  0
 27 29  1  0
 29 30  2  0
 30  2  1  0
  9  4  2  0
 16 11  2  0
 30 24  1  0
M  END
>  <shape_align_shape_tanimoto>  (3) 
0.58362881262480493

>  <shape_align_color_tanimoto>  (3) 
0.028241119688921578

>  <metric>  (3) 
combo

>  <metric_score>  (3) 
0.306

>  <template_pid>  (3) 
5AA8

>  <template_shape_score>  (3) 
0.584

>  <template_color_score>  (3) 
0.028

>  <template_combo_score>  (3) 
0.306

$$$$
