6QLT_shape_pose
     RDKit          3D

 30 33  0  0  0  0  0  0  0  0999 V2000
    7.9402  -10.6378    4.1049 C   0  0  0  0  0  0  0  0  0  0  0  0
    8.8459  -11.8060    4.2239 C   0  0  0  0  0  0  0  0  0  0  0  0
    9.8599  -11.7746    5.1406 C   0  0  0  0  0  0  0  0  0  0  0  0
   10.7450  -12.8427    5.2982 C   0  0  0  0  0  0  0  0  0  0  0  0
   10.6113  -13.9822    4.5117 C   0  0  0  0  0  0  0  0  0  0  0  0
   11.7641  -15.3252    4.7486 S   0  0  0  0  0  0  0  0  0  0  0  0
   13.2214  -15.1551    3.6753 C   0  0  2  0  0  0  0  0  0  0  0  0
   13.9073  -14.0482    4.0808 O   0  0  0  0  0  0  0  0  0  0  0  0
   14.8704  -13.5950    3.2108 C   0  0  2  0  0  0  0  0  0  0  0  0
   15.6276  -12.4449    3.7756 C   0  0  0  0  0  0  0  0  0  0  0  0
   16.5879  -12.0421    2.8320 O   0  0  0  0  0  0  0  0  0  0  0  0
   14.0889  -13.0918    1.9883 C   0  0  2  0  0  0  0  0  0  0  0  0
   13.0042  -12.3934    2.5173 O   0  0  0  0  0  0  0  0  0  0  0  0
   13.5905  -14.3418    1.3204 C   0  0  2  0  0  0  0  0  0  0  0  0
   12.8374  -13.9609    0.1449 N   0  0  0  0  0  0  0  0  0  0  0  0
   12.3680  -12.7612   -0.2363 C   0  0  0  0  0  0  0  0  0  0  0  0
   11.7073  -12.8967   -1.4368 C   0  0  0  0  0  0  0  0  0  0  0  0
   11.0287  -11.9080   -2.2565 C   0  0  0  0  0  0  0  0  0  0  0  0
   10.4395  -12.3380   -3.4302 C   0  0  0  0  0  0  0  0  0  0  0  0
    9.7731  -11.4309   -4.2549 C   0  0  0  0  0  0  0  0  0  0  0  0
    9.6822  -10.0879   -3.9282 C   0  0  0  0  0  0  0  0  0  0  0  0
   10.2741   -9.6826   -2.7591 C   0  0  0  0  0  0  0  0  0  0  0  0
   10.9284  -10.5788   -1.9510 C   0  0  0  0  0  0  0  0  0  0  0  0
   11.4885  -10.1198   -0.8191 F   0  0  0  0  0  0  0  0  0  0  0  0
   11.7929  -14.1988   -1.7608 N   0  0  0  0  0  0  0  0  0  0  0  0
   12.4705  -14.8190   -0.8061 N   0  0  0  0  0  0  0  0  0  0  0  0
   12.8287  -15.2433    2.2452 C   0  0  1  0  0  0  0  0  0  0  0  0
   12.9646  -16.5546    1.7674 O   0  0  0  0  0  0  0  0  0  0  0  0
    9.5927  -14.0115    3.5920 C   0  0  0  0  0  0  0  0  0  0  0  0
    8.7184  -12.9435    3.4437 C   0  0  0  0  0  0  0  0  0  0  0  0
  1  2  1  0
  2  3  2  0
  3  4  1  0
  4  5  2  0
  5  6  1  0
  7  6  1  1
  7  8  1  0
  8  9  1  0
  9 10  1  1
 10 11  1  0
  9 12  1  0
 12 13  1  1
 12 14  1  0
 14 15  1  6
 15 16  1  0
 16 17  2  0
 17 18  1  0
 18 19  2  0
 19 20  1  0
 20 21  2  0
 21 22  1  0
 22 23  2  0
 23 24  1  0
 17 25  1  0
 25 26  2  0
 14 27  1  0
 27 28  1  6
  5 29  1  0
 29 30  2  0
 30  2  1  0
 27  7  1  0
 26 15  1  0
 23 18  1  0
M  END
>  <shape_align_shape_tanimoto>  (1) 
0.63423773917281145

>  <shape_align_color_tanimoto>  (1) 
0.060464861871570318

>  <metric>  (1) 
shape

>  <metric_score>  (1) 
0.634

>  <template_pid>  (1) 
6QLT

>  <template_shape_score>  (1) 
0.634

>  <template_color_score>  (1) 
0.060

>  <template_combo_score>  (1) 
0.347

$$$$
6QLT_color_pose
     RDKit          3D

 30 33  0  0  0  0  0  0  0  0999 V2000
    9.5544  -10.1719   -4.0036 C   0  0  0  0  0  0  0  0  0  0  0  0
   10.4467  -11.1168   -3.2732 C   0  0  0  0  0  0  0  0  0  0  0  0
   11.7928  -10.7893   -3.2372 C   0  0  0  0  0  0  0  0  0  0  0  0
   12.6834  -11.6313   -2.5696 C   0  0  0  0  0  0  0  0  0  0  0  0
   12.2022  -12.7899   -1.9493 C   0  0  0  0  0  0  0  0  0  0  0  0
   13.4174  -13.8020   -1.1217 S   0  0  0  0  0  0  0  0  0  0  0  0
   13.6568  -13.3566    0.6003 C   0  0  2  0  0  0  0  0  0  0  0  0
   14.6190  -14.1989    1.1569 O   0  0  0  0  0  0  0  0  0  0  0  0
   15.0095  -13.8101    2.4152 C   0  0  2  0  0  0  0  0  0  0  0  0
   15.9958  -14.8383    2.9308 C   0  0  0  0  0  0  0  0  0  0  0  0
   15.4261  -16.1095    2.9976 O   0  0  0  0  0  0  0  0  0  0  0  0
   13.8736  -13.6533    3.3855 C   0  0  2  0  0  0  0  0  0  0  0  0
   13.4569  -14.8155    3.9873 O   0  0  0  0  0  0  0  0  0  0  0  0
   12.7487  -12.8751    2.7972 C   0  0  2  0  0  0  0  0  0  0  0  0
   11.5742  -12.9475    3.6516 N   0  0  0  0  0  0  0  0  0  0  0  0
   10.5912  -12.0316    3.7156 C   0  0  0  0  0  0  0  0  0  0  0  0
    9.6499  -12.4534    4.6430 C   0  0  0  0  0  0  0  0  0  0  0  0
    8.4257  -11.7362    5.0052 C   0  0  0  0  0  0  0  0  0  0  0  0
    8.1240  -10.5296    4.4077 C   0  0  0  0  0  0  0  0  0  0  0  0
    6.9439   -9.9033    4.8003 C   0  0  0  0  0  0  0  0  0  0  0  0
    6.1363  -10.4962    5.7499 C   0  0  0  0  0  0  0  0  0  0  0  0
    6.4349  -11.7030    6.3495 C   0  0  0  0  0  0  0  0  0  0  0  0
    7.6126  -12.3227    5.9543 C   0  0  0  0  0  0  0  0  0  0  0  0
    7.9488  -13.5146    6.5182 F   0  0  0  0  0  0  0  0  0  0  0  0
   10.1119  -13.6301    5.1105 N   0  0  0  0  0  0  0  0  0  0  0  0
   11.2632  -13.9012    4.5009 N   0  0  0  0  0  0  0  0  0  0  0  0
   12.4078  -13.5009    1.4447 C   0  0  1  0  0  0  0  0  0  0  0  0
   11.2930  -12.8863    0.8811 O   0  0  0  0  0  0  0  0  0  0  0  0
   10.8602  -13.1075   -1.9906 C   0  0  0  0  0  0  0  0  0  0  0  0
    9.9739  -12.2627   -2.6590 C   0  0  0  0  0  0  0  0  0  0  0  0
  1  2  1  0
  2  3  2  0
  3  4  1  0
  4  5  2  0
  5  6  1  0
  7  6  1  6
  7  8  1  0
  8  9  1  0
  9 10  1  1
 10 11  1  0
  9 12  1  0
 12 13  1  6
 12 14  1  0
 14 15  1  1
 15 16  1  0
 16 17  2  0
 17 18  1  0
 18 19  2  0
 19 20  1  0
 20 21  2  0
 21 22  1  0
 22 23  2  0
 23 24  1  0
 17 25  1  0
 25 26  2  0
 14 27  1  0
 27 28  1  6
  5 29  1  0
 29 30  2  0
 30  2  1  0
 27  7  1  0
 26 15  1  0
 23 18  1  0
M  END
>  <shape_align_shape_tanimoto>  (2) 
0.49086901846018893

>  <shape_align_color_tanimoto>  (2) 
0.13591836540880892

>  <metric>  (2) 
color

>  <metric_score>  (2) 
0.136

>  <template_pid>  (2) 
6QLT

>  <template_shape_score>  (2) 
0.491

>  <template_color_score>  (2) 
0.136

>  <template_combo_score>  (2) 
0.313

$$$$
6QLT_combo_pose
     RDKit          3D

 30 33  0  0  0  0  0  0  0  0999 V2000
    8.1534  -12.2379    5.4525 C   0  0  0  0  0  0  0  0  0  0  0  0
    9.2984  -12.7773    4.7105 C   0  0  0  0  0  0  0  0  0  0  0  0
    9.4252  -14.1218    4.3603 C   0  0  0  0  0  0  0  0  0  0  0  0
   10.5432  -14.5325    3.6600 C   0  0  0  0  0  0  0  0  0  0  0  0
   11.5566  -13.6887    3.2789 C   0  0  0  0  0  0  0  0  0  0  0  0
   12.9955  -14.2406    2.3791 S   0  0  0  0  0  0  0  0  0  0  0  0
   12.7449  -14.1850    0.6172 C   0  0  2  0  0  0  0  0  0  0  0  0
   13.8508  -14.5990   -0.1173 O   0  0  0  0  0  0  0  0  0  0  0  0
   13.4758  -14.8863   -1.4080 C   0  0  2  0  0  0  0  0  0  0  0  0
   14.5359  -15.5898   -2.1999 C   0  0  0  0  0  0  0  0  0  0  0  0
   14.8187  -16.7919   -1.5399 O   0  0  0  0  0  0  0  0  0  0  0  0
   12.9664  -13.6585   -2.1354 C   0  0  2  0  0  0  0  0  0  0  0  0
   13.9488  -12.7320   -2.4130 O   0  0  0  0  0  0  0  0  0  0  0  0
   11.8317  -13.0954   -1.3281 C   0  0  2  0  0  0  0  0  0  0  0  0
   11.2645  -11.9119   -1.9330 N   0  0  0  0  0  0  0  0  0  0  0  0
   11.0795  -11.7147   -3.2509 C   0  0  0  0  0  0  0  0  0  0  0  0
   10.5132  -10.4541   -3.3865 C   0  0  0  0  0  0  0  0  0  0  0  0
   10.1392   -9.8196   -4.6505 C   0  0  0  0  0  0  0  0  0  0  0  0
   10.3265  -10.4495   -5.8759 C   0  0  0  0  0  0  0  0  0  0  0  0
    9.9437   -9.7781   -7.0378 C   0  0  0  0  0  0  0  0  0  0  0  0
    9.3915   -8.5128   -6.9478 C   0  0  0  0  0  0  0  0  0  0  0  0
    9.2029   -7.8833   -5.7430 C   0  0  0  0  0  0  0  0  0  0  0  0
    9.5809   -8.5460   -4.5929 C   0  0  0  0  0  0  0  0  0  0  0  0
    9.4088   -7.9507   -3.3685 F   0  0  0  0  0  0  0  0  0  0  0  0
   10.3792   -9.9389   -2.1305 N   0  0  0  0  0  0  0  0  0  0  0  0
   10.8433  -10.8486   -1.2870 N   0  0  0  0  0  0  0  0  0  0  0  0
   12.3165  -12.8376    0.0783 C   0  0  1  0  0  0  0  0  0  0  0  0
   11.3136  -12.2848    0.8746 O   0  0  0  0  0  0  0  0  0  0  0  0
   11.4066  -12.3470    3.6414 C   0  0  0  0  0  0  0  0  0  0  0  0
   10.3023  -11.9061    4.3405 C   0  0  0  0  0  0  0  0  0  0  0  0
  1  2  1  0
  2  3  2  0
  3  4  1  0
  4  5  2  0
  5  6  1  0
  7  6  1  1
  7  8  1  0
  8  9  1  0
  9 10  1  6
 10 11  1  0
  9 12  1  0
 12 13  1  1
 12 14  1  0
 14 15  1  6
 15 16  1  0
 16 17  2  0
 17 18  1  0
 18 19  2  0
 19 20  1  0
 20 21  2  0
 21 22  1  0
 22 23  2  0
 23 24  1  0
 17 25  1  0
 25 26  2  0
 14 27  1  0
 27 28  1  1
  5 29  1  0
 29 30  2  0
 30  2  1  0
 27  7  1  0
 26 15  1  0
 23 18  1  0
M  END
>  <shape_align_shape_tanimoto>  (3) 
0.57757843930485731

>  <shape_align_color_tanimoto>  (3) 
0.1206521312256576

>  <metric>  (3) 
combo

>  <metric_score>  (3) 
0.349

>  <template_pid>  (3) 
6QLT

>  <template_shape_score>  (3) 
0.578

>  <template_color_score>  (3) 
0.121

>  <template_combo_score>  (3) 
0.349

$$$$
