6NSV_shape_pose
     RDKit          3D

 55 59  0  0  0  0  0  0  0  0999 V2000
   11.3445   40.3584   -8.2264 C   0  0  0  0  0  0  0  0  0  0  0  0
   11.5978   38.9068   -7.9319 C   0  0  0  0  0  0  0  0  0  0  0  0
   10.5901   38.1571   -7.9878 O   0  0  0  0  0  0  0  0  0  0  0  0
   12.9039   38.4407   -7.6140 N   0  0  0  0  0  0  0  0  0  0  0  0
   13.1521   37.0201   -7.3269 C   0  0  1  0  0  0  0  0  0  0  0  0
   14.0023   36.4112   -8.3844 C   0  0  0  0  0  0  0  0  0  0  0  0
   15.3433   37.0094   -8.6060 C   0  0  0  0  0  0  0  0  0  0  0  0
   16.0763   36.2684   -9.7438 C   0  0  0  0  0  0  0  0  0  0  0  0
   16.2840   36.8830   -7.4104 C   0  0  0  0  0  0  0  0  0  0  0  0
   13.5252   36.7724   -5.9354 C   0  0  0  0  0  0  0  0  0  0  0  0
   13.6317   37.7615   -5.1319 O   0  0  0  0  0  0  0  0  0  0  0  0
   13.7678   35.4405   -5.4648 N   0  0  0  0  0  0  0  0  0  0  0  0
   14.1266   35.2820   -4.0610 C   0  0  1  0  0  0  0  0  0  0  0  0
   12.9636   34.6949   -3.2794 C   0  0  0  0  0  0  0  0  0  0  0  0
   13.3297   34.5371   -1.8510 C   0  0  0  0  0  0  0  0  0  0  0  0
   13.6337   33.4038   -1.1295 C   0  0  0  0  0  0  0  0  0  0  0  0
   13.8942   33.7538    0.1399 N   0  0  0  0  0  0  0  0  0  0  0  0
   13.7771   35.0899    0.3058 C   0  0  0  0  0  0  0  0  0  0  0  0
   13.9461   35.9043    1.4148 C   0  0  0  0  0  0  0  0  0  0  0  0
   13.7523   37.2797    1.2712 C   0  0  0  0  0  0  0  0  0  0  0  0
   13.4011   37.8076    0.0517 C   0  0  0  0  0  0  0  0  0  0  0  0
   13.2452   36.9524   -1.0215 C   0  0  0  0  0  0  0  0  0  0  0  0
   13.4252   35.5857   -0.9316 C   0  0  0  0  0  0  0  0  0  0  0  0
   15.3148   34.4622   -3.8560 C   0  0  0  0  0  0  0  0  0  0  0  0
   15.7194   34.2616   -2.6834 O   0  0  0  0  0  0  0  0  0  0  0  0
   16.0394   33.8778   -4.9154 N   0  0  0  0  0  0  0  0  0  0  0  0
   17.2353   33.0503   -4.7266 C   0  0  1  0  0  0  0  0  0  0  0  0
   16.9863   31.6752   -5.2871 C   0  0  0  0  0  0  0  0  0  0  0  0
   16.5659   31.6731   -6.6997 C   0  0  0  0  0  0  0  0  0  0  0  0
   15.2195   31.4411   -7.0443 C   0  0  0  0  0  0  0  0  0  0  0  0
   15.0674   31.4825   -8.3649 N   0  0  0  0  0  0  0  0  0  0  0  0
   16.2733   31.7346   -8.8986 C   0  0  0  0  0  0  0  0  0  0  0  0
   16.5959   31.8652  -10.2358 C   0  0  0  0  0  0  0  0  0  0  0  0
   17.9005   32.1251  -10.5511 C   0  0  0  0  0  0  0  0  0  0  0  0
   18.8263   32.2437   -9.5289 C   0  0  0  0  0  0  0  0  0  0  0  0
   18.5017   32.1127   -8.1975 C   0  0  0  0  0  0  0  0  0  0  0  0
   17.1953   31.8529   -7.8863 C   0  0  0  0  0  0  0  0  0  0  0  0
   18.4919   33.7067   -5.0788 C   0  0  0  0  0  0  0  0  0  0  0  0
   18.4934   34.7644   -5.7586 O   0  0  0  0  0  0  0  0  0  0  0  0
   19.7736   33.1858   -4.6529 N   0  0  0  0  0  0  0  0  0  0  0  0
   20.0422   31.9580   -3.9231 C   0  0  0  0  0  0  0  0  0  0  0  0
   21.1795   32.2615   -2.9621 C   0  0  0  0  0  0  0  0  0  0  0  0
   21.6435   33.6518   -3.3390 C   0  0  0  0  0  0  0  0  0  0  0  0
   21.0511   33.8432   -4.7608 C   0  0  1  0  0  0  0  0  0  0  0  0
   22.0027   33.4559   -5.7664 C   0  0  0  0  0  0  0  0  0  0  0  0
   23.0197   34.2490   -5.9249 O   0  0  0  0  0  0  0  0  0  0  0  0
   22.0093   32.3326   -6.6200 N   0  0  0  0  0  0  0  0  0  0  0  0
   23.0635   32.1188   -7.5695 C   0  0  1  0  0  0  0  0  0  0  0  0
   23.7863   30.8142   -7.3463 C   0  0  0  0  0  0  0  0  0  0  0  0
   22.9404   29.6218   -7.4419 C   0  0  0  0  0  0  0  0  0  0  0  0
   21.7157   29.6091   -7.6865 O   0  0  0  0  0  0  0  0  0  0  0  0
   23.5550   28.3802   -7.2416 O   0  0  0  0  0  0  0  0  0  0  0  0
   22.6098   32.2375   -8.9956 C   0  0  0  0  0  0  0  0  0  0  0  0
   22.3737   33.3871   -9.4468 O   0  0  0  0  0  0  0  0  0  0  0  0
   22.4757   31.0736   -9.7377 O   0  0  0  0  0  0  0  0  0  0  0  0
  1  2  1  0
  2  3  2  0
  2  4  1  0
  4  5  1  0
  5  6  1  6
  6  7  1  0
  7  8  1  0
  7  9  1  0
  5 10  1  0
 10 11  2  0
 10 12  1  0
 12 13  1  0
 13 14  1  1
 14 15  1  0
 15 16  2  0
 16 17  1  0
 17 18  1  0
 18 19  2  0
 19 20  1  0
 20 21  2  0
 21 22  1  0
 22 23  2  0
 13 24  1  0
 24 25  2  0
 24 26  1  0
 26 27  1  0
 27 28  1  6
 28 29  1  0
 29 30  2  0
 30 31  1  0
 31 32  1  0
 32 33  2  0
 33 34  1  0
 34 35  2  0
 35 36  1  0
 36 37  2  0
 27 38  1  0
 38 39  2  0
 38 40  1  0
 40 41  1  0
 41 42  1  0
 42 43  1  0
 43 44  1  0
 44 45  1  6
 45 46  2  0
 45 47  1  0
 47 48  1  0
 48 49  1  6
 49 50  1  0
 50 51  2  0
 50 52  1  0
 48 53  1  0
 53 54  2  0
 53 55  1  0
 23 15  1  0
 37 29  1  0
 44 40  1  0
 23 18  1  0
 37 32  1  0
M  CHG  2  52  -1  55  -1
M  END
>  <shape_align_shape_tanimoto>  (1) 
0.3572025889701666

>  <shape_align_color_tanimoto>  (1) 
0.0064402105972462508

>  <metric>  (1) 
shape

>  <metric_score>  (1) 
0.357

>  <template_pid>  (1) 
6NSV

>  <template_shape_score>  (1) 
0.357

>  <template_color_score>  (1) 
0.006

>  <template_combo_score>  (1) 
0.182

$$$$
6NSV_color_pose
     RDKit          3D

 55 59  0  0  0  0  0  0  0  0999 V2000
   14.7065   41.2197   -3.8065 C   0  0  0  0  0  0  0  0  0  0  0  0
   13.7648   40.0794   -4.0830 C   0  0  0  0  0  0  0  0  0  0  0  0
   12.5616   40.0998   -3.7063 O   0  0  0  0  0  0  0  0  0  0  0  0
   14.3007   38.9660   -4.7964 N   0  0  0  0  0  0  0  0  0  0  0  0
   13.5178   37.8285   -5.1176 C   0  0  1  0  0  0  0  0  0  0  0  0
   13.1207   37.6070   -6.5230 C   0  0  0  0  0  0  0  0  0  0  0  0
   14.1570   37.4576   -7.5638 C   0  0  0  0  0  0  0  0  0  0  0  0
   14.9852   38.7051   -7.6840 C   0  0  0  0  0  0  0  0  0  0  0  0
   13.5424   37.0983   -8.9268 C   0  0  0  0  0  0  0  0  0  0  0  0
   13.8662   36.5661   -4.4532 C   0  0  0  0  0  0  0  0  0  0  0  0
   13.2147   35.5277   -4.8323 O   0  0  0  0  0  0  0  0  0  0  0  0
   14.8583   36.4102   -3.4299 N   0  0  0  0  0  0  0  0  0  0  0  0
   15.0428   35.1029   -2.9092 C   0  0  1  0  0  0  0  0  0  0  0  0
   13.9377   34.4622   -2.1329 C   0  0  0  0  0  0  0  0  0  0  0  0
   13.5592   35.1518   -0.8793 C   0  0  0  0  0  0  0  0  0  0  0  0
   14.0807   34.6998    0.3537 C   0  0  0  0  0  0  0  0  0  0  0  0
   13.6101   35.5073    1.3428 N   0  0  0  0  0  0  0  0  0  0  0  0
   12.8301   36.4207    0.7604 C   0  0  0  0  0  0  0  0  0  0  0  0
   12.1147   37.4579    1.3242 C   0  0  0  0  0  0  0  0  0  0  0  0
   11.3425   38.3158    0.5739 C   0  0  0  0  0  0  0  0  0  0  0  0
   11.3248   38.0746   -0.8020 C   0  0  0  0  0  0  0  0  0  0  0  0
   12.0239   37.0554   -1.3869 C   0  0  0  0  0  0  0  0  0  0  0  0
   12.7791   36.2267   -0.6062 C   0  0  0  0  0  0  0  0  0  0  0  0
   15.7176   34.1218   -3.7533 C   0  0  0  0  0  0  0  0  0  0  0  0
   15.6769   32.8988   -3.4409 O   0  0  0  0  0  0  0  0  0  0  0  0
   16.4242   34.4886   -4.9062 N   0  0  0  0  0  0  0  0  0  0  0  0
   17.0850   33.3700   -5.6822 C   0  0  1  0  0  0  0  0  0  0  0  0
   17.1416   33.8439   -7.0854 C   0  0  0  0  0  0  0  0  0  0  0  0
   17.7629   32.9378   -8.0312 C   0  0  0  0  0  0  0  0  0  0  0  0
   17.0933   32.0734   -8.9001 C   0  0  0  0  0  0  0  0  0  0  0  0
   17.9562   31.3861   -9.6452 N   0  0  0  0  0  0  0  0  0  0  0  0
   19.1717   31.7754   -9.2893 C   0  0  0  0  0  0  0  0  0  0  0  0
   20.3984   31.3414   -9.8013 C   0  0  0  0  0  0  0  0  0  0  0  0
   21.5604   31.9031   -9.2798 C   0  0  0  0  0  0  0  0  0  0  0  0
   21.5193   32.8691   -8.2769 C   0  0  0  0  0  0  0  0  0  0  0  0
   20.2653   33.2529   -7.8149 C   0  0  0  0  0  0  0  0  0  0  0  0
   19.0937   32.7286   -8.2988 C   0  0  0  0  0  0  0  0  0  0  0  0
   18.3717   33.1639   -4.9644 C   0  0  0  0  0  0  0  0  0  0  0  0
   18.7744   34.1969   -4.3213 O   0  0  0  0  0  0  0  0  0  0  0  0
   19.1104   31.9413   -4.9562 N   0  0  0  0  0  0  0  0  0  0  0  0
   18.7858   30.6775   -5.6088 C   0  0  0  0  0  0  0  0  0  0  0  0
   20.1432   30.1859   -6.0516 C   0  0  0  0  0  0  0  0  0  0  0  0
   21.1444   30.8127   -5.1254 C   0  0  0  0  0  0  0  0  0  0  0  0
   20.2975   31.7149   -4.2111 C   0  0  1  0  0  0  0  0  0  0  0  0
   21.1150   32.8480   -3.8004 C   0  0  0  0  0  0  0  0  0  0  0  0
   21.2387   33.9575   -4.3470 O   0  0  0  0  0  0  0  0  0  0  0  0
   21.8877   32.6633   -2.5844 N   0  0  0  0  0  0  0  0  0  0  0  0
   22.7342   33.6780   -2.0271 C   0  0  1  0  0  0  0  0  0  0  0  0
   22.1222   33.9943   -0.6497 C   0  0  0  0  0  0  0  0  0  0  0  0
   22.8909   35.0375    0.0537 C   0  0  0  0  0  0  0  0  0  0  0  0
   24.0059   34.8057    0.6338 O   0  0  0  0  0  0  0  0  0  0  0  0
   22.4424   36.3451    0.1277 O   0  0  0  0  0  0  0  0  0  0  0  0
   24.1108   33.1441   -1.8753 C   0  0  0  0  0  0  0  0  0  0  0  0
   24.5919   32.7205   -0.8051 O   0  0  0  0  0  0  0  0  0  0  0  0
   24.9309   33.1137   -3.0172 O   0  0  0  0  0  0  0  0  0  0  0  0
  1  2  1  0
  2  3  2  0
  2  4  1  0
  4  5  1  0
  5  6  1  6
  6  7  1  0
  7  8  1  0
  7  9  1  0
  5 10  1  0
 10 11  2  0
 10 12  1  0
 12 13  1  0
 13 14  1  6
 14 15  1  0
 15 16  2  0
 16 17  1  0
 17 18  1  0
 18 19  2  0
 19 20  1  0
 20 21  2  0
 21 22  1  0
 22 23  2  0
 13 24  1  0
 24 25  2  0
 24 26  1  0
 26 27  1  0
 27 28  1  6
 28 29  1  0
 29 30  2  0
 30 31  1  0
 31 32  1  0
 32 33  2  0
 33 34  1  0
 34 35  2  0
 35 36  1  0
 36 37  2  0
 27 38  1  0
 38 39  2  0
 38 40  1  0
 40 41  1  0
 41 42  1  0
 42 43  1  0
 43 44  1  0
 44 45  1  6
 45 46  2  0
 45 47  1  0
 47 48  1  0
 48 49  1  1
 49 50  1  0
 50 51  2  0
 50 52  1  0
 48 53  1  0
 53 54  2  0
 53 55  1  0
 23 15  1  0
 37 29  1  0
 44 40  1  0
 23 18  1  0
 37 32  1  0
M  CHG  2  52  -1  55  -1
M  END
>  <shape_align_shape_tanimoto>  (2) 
0.3517250057755083

>  <shape_align_color_tanimoto>  (2) 
0.041967304006069024

>  <metric>  (2) 
color

>  <metric_score>  (2) 
0.042

>  <template_pid>  (2) 
6NSV

>  <template_shape_score>  (2) 
0.352

>  <template_color_score>  (2) 
0.042

>  <template_combo_score>  (2) 
0.197

$$$$
6NSV_combo_pose
     RDKit          3D

 55 59  0  0  0  0  0  0  0  0999 V2000
   14.7065   41.2197   -3.8065 C   0  0  0  0  0  0  0  0  0  0  0  0
   13.7648   40.0794   -4.0830 C   0  0  0  0  0  0  0  0  0  0  0  0
   12.5616   40.0998   -3.7063 O   0  0  0  0  0  0  0  0  0  0  0  0
   14.3007   38.9660   -4.7964 N   0  0  0  0  0  0  0  0  0  0  0  0
   13.5178   37.8285   -5.1176 C   0  0  1  0  0  0  0  0  0  0  0  0
   13.1207   37.6070   -6.5230 C   0  0  0  0  0  0  0  0  0  0  0  0
   14.1570   37.4576   -7.5638 C   0  0  0  0  0  0  0  0  0  0  0  0
   14.9852   38.7051   -7.6840 C   0  0  0  0  0  0  0  0  0  0  0  0
   13.5424   37.0983   -8.9268 C   0  0  0  0  0  0  0  0  0  0  0  0
   13.8662   36.5661   -4.4532 C   0  0  0  0  0  0  0  0  0  0  0  0
   13.2147   35.5277   -4.8323 O   0  0  0  0  0  0  0  0  0  0  0  0
   14.8583   36.4102   -3.4299 N   0  0  0  0  0  0  0  0  0  0  0  0
   15.0428   35.1029   -2.9092 C   0  0  1  0  0  0  0  0  0  0  0  0
   13.9377   34.4622   -2.1329 C   0  0  0  0  0  0  0  0  0  0  0  0
   13.5592   35.1518   -0.8793 C   0  0  0  0  0  0  0  0  0  0  0  0
   14.0807   34.6998    0.3537 C   0  0  0  0  0  0  0  0  0  0  0  0
   13.6101   35.5073    1.3428 N   0  0  0  0  0  0  0  0  0  0  0  0
   12.8301   36.4207    0.7604 C   0  0  0  0  0  0  0  0  0  0  0  0
   12.1147   37.4579    1.3242 C   0  0  0  0  0  0  0  0  0  0  0  0
   11.3425   38.3158    0.5739 C   0  0  0  0  0  0  0  0  0  0  0  0
   11.3248   38.0746   -0.8020 C   0  0  0  0  0  0  0  0  0  0  0  0
   12.0239   37.0554   -1.3869 C   0  0  0  0  0  0  0  0  0  0  0  0
   12.7791   36.2267   -0.6062 C   0  0  0  0  0  0  0  0  0  0  0  0
   15.7176   34.1218   -3.7533 C   0  0  0  0  0  0  0  0  0  0  0  0
   15.6769   32.8988   -3.4409 O   0  0  0  0  0  0  0  0  0  0  0  0
   16.4242   34.4886   -4.9062 N   0  0  0  0  0  0  0  0  0  0  0  0
   17.0850   33.3700   -5.6822 C   0  0  1  0  0  0  0  0  0  0  0  0
   17.1416   33.8439   -7.0854 C   0  0  0  0  0  0  0  0  0  0  0  0
   17.7629   32.9378   -8.0312 C   0  0  0  0  0  0  0  0  0  0  0  0
   17.0933   32.0734   -8.9001 C   0  0  0  0  0  0  0  0  0  0  0  0
   17.9562   31.3861   -9.6452 N   0  0  0  0  0  0  0  0  0  0  0  0
   19.1717   31.7754   -9.2893 C   0  0  0  0  0  0  0  0  0  0  0  0
   20.3984   31.3414   -9.8013 C   0  0  0  0  0  0  0  0  0  0  0  0
   21.5604   31.9031   -9.2798 C   0  0  0  0  0  0  0  0  0  0  0  0
   21.5193   32.8691   -8.2769 C   0  0  0  0  0  0  0  0  0  0  0  0
   20.2653   33.2529   -7.8149 C   0  0  0  0  0  0  0  0  0  0  0  0
   19.0937   32.7286   -8.2988 C   0  0  0  0  0  0  0  0  0  0  0  0
   18.3717   33.1639   -4.9644 C   0  0  0  0  0  0  0  0  0  0  0  0
   18.7744   34.1969   -4.3213 O   0  0  0  0  0  0  0  0  0  0  0  0
   19.1104   31.9413   -4.9562 N   0  0  0  0  0  0  0  0  0  0  0  0
   18.7858   30.6775   -5.6088 C   0  0  0  0  0  0  0  0  0  0  0  0
   20.1432   30.1859   -6.0516 C   0  0  0  0  0  0  0  0  0  0  0  0
   21.1444   30.8127   -5.1254 C   0  0  0  0  0  0  0  0  0  0  0  0
   20.2975   31.7149   -4.2111 C   0  0  1  0  0  0  0  0  0  0  0  0
   21.1150   32.8480   -3.8004 C   0  0  0  0  0  0  0  0  0  0  0  0
   21.2387   33.9575   -4.3470 O   0  0  0  0  0  0  0  0  0  0  0  0
   21.8877   32.6633   -2.5844 N   0  0  0  0  0  0  0  0  0  0  0  0
   22.7342   33.6780   -2.0271 C   0  0  1  0  0  0  0  0  0  0  0  0
   22.1222   33.9943   -0.6497 C   0  0  0  0  0  0  0  0  0  0  0  0
   22.8909   35.0375    0.0537 C   0  0  0  0  0  0  0  0  0  0  0  0
   24.0059   34.8057    0.6338 O   0  0  0  0  0  0  0  0  0  0  0  0
   22.4424   36.3451    0.1277 O   0  0  0  0  0  0  0  0  0  0  0  0
   24.1108   33.1441   -1.8753 C   0  0  0  0  0  0  0  0  0  0  0  0
   24.5919   32.7205   -0.8051 O   0  0  0  0  0  0  0  0  0  0  0  0
   24.9309   33.1137   -3.0172 O   0  0  0  0  0  0  0  0  0  0  0  0
  1  2  1  0
  2  3  2  0
  2  4  1  0
  4  5  1  0
  5  6  1  6
  6  7  1  0
  7  8  1  0
  7  9  1  0
  5 10  1  0
 10 11  2  0
 10 12  1  0
 12 13  1  0
 13 14  1  6
 14 15  1  0
 15 16  2  0
 16 17  1  0
 17 18  1  0
 18 19  2  0
 19 20  1  0
 20 21  2  0
 21 22  1  0
 22 23  2  0
 13 24  1  0
 24 25  2  0
 24 26  1  0
 26 27  1  0
 27 28  1  6
 28 29  1  0
 29 30  2  0
 30 31  1  0
 31 32  1  0
 32 33  2  0
 33 34  1  0
 34 35  2  0
 35 36  1  0
 36 37  2  0
 27 38  1  0
 38 39  2  0
 38 40  1  0
 40 41  1  0
 41 42  1  0
 42 43  1  0
 43 44  1  0
 44 45  1  6
 45 46  2  0
 45 47  1  0
 47 48  1  0
 48 49  1  1
 49 50  1  0
 50 51  2  0
 50 52  1  0
 48 53  1  0
 53 54  2  0
 53 55  1  0
 23 15  1  0
 37 29  1  0
 44 40  1  0
 23 18  1  0
 37 32  1  0
M  CHG  2  52  -1  55  -1
M  END
>  <shape_align_shape_tanimoto>  (3) 
0.3517250057755083

>  <shape_align_color_tanimoto>  (3) 
0.041967304006069024

>  <metric>  (3) 
combo

>  <metric_score>  (3) 
0.197

>  <template_pid>  (3) 
6NSV

>  <template_shape_score>  (3) 
0.352

>  <template_color_score>  (3) 
0.042

>  <template_combo_score>  (3) 
0.197

$$$$
