6AHS_shape_pose
     RDKit          3D

 26 29  0  0  0  0  0  0  0  0999 V2000
   -2.3549  -27.1419  -16.2951 C   0  0  0  0  0  0  0  0  0  0  0  0
   -1.8983  -28.2247  -15.3541 C   0  0  0  0  0  0  0  0  0  0  0  0
   -1.6988  -28.1012  -14.0950 N   0  0  0  0  0  0  0  0  0  0  0  0
   -1.2690  -29.3655  -13.5542 C   0  0  2  0  0  0  0  0  0  0  0  0
   -0.3222  -29.2068  -12.4209 C   0  0  0  0  0  0  0  0  0  0  0  0
    0.4927  -28.1111  -12.2545 C   0  0  0  0  0  0  0  0  0  0  0  0
    1.2232  -28.3008  -11.1166 N   0  0  0  0  0  0  0  0  0  0  0  0
    2.3640  -27.1244  -10.5740 S   0  0  0  0  0  0  0  0  0  0  0  0
    3.1340  -27.6973   -9.4119 O   0  0  0  0  0  0  0  0  0  0  0  0
    3.3267  -26.7516  -11.6663 O   0  0  0  0  0  0  0  0  0  0  0  0
    1.5713  -25.6573  -10.0375 C   0  0  0  0  0  0  0  0  0  0  0  0
    1.8329  -24.4298  -10.6519 C   0  0  0  0  0  0  0  0  0  0  0  0
    1.2211  -23.2622  -10.2489 C   0  0  0  0  0  0  0  0  0  0  0  0
    0.3216  -23.2599   -9.2173 C   0  0  0  0  0  0  0  0  0  0  0  0
    0.0463  -24.4483   -8.5971 C   0  0  0  0  0  0  0  0  0  0  0  0
    0.6629  -25.6256   -9.0032 C   0  0  0  0  0  0  0  0  0  0  0  0
    0.2557  -27.0803   -8.1609 Cl  0  0  0  0  0  0  0  0  0  0  0  0
    0.8845  -29.4822  -10.5737 C   0  0  0  0  0  0  0  0  0  0  0  0
    1.3218  -30.1366   -9.4402 C   0  0  0  0  0  0  0  0  0  0  0  0
    0.7826  -31.3672   -9.1272 C   0  0  0  0  0  0  0  0  0  0  0  0
   -0.1822  -31.9652   -9.9140 C   0  0  0  0  0  0  0  0  0  0  0  0
   -0.7650  -33.2981   -9.5732 C   0  0  0  0  0  0  0  0  0  0  0  0
   -0.6224  -31.3136  -11.0491 C   0  0  0  0  0  0  0  0  0  0  0  0
   -0.0923  -30.0803  -11.3766 C   0  0  0  0  0  0  0  0  0  0  0  0
   -0.6711  -30.0428  -14.7352 C   0  0  0  0  0  0  0  0  0  0  0  0
   -1.6172  -29.5738  -15.7636 N   0  0  0  0  0  0  0  0  0  0  0  0
  1  2  1  0
  2  3  2  0
  3  4  1  0
  4  5  1  1
  5  6  2  0
  6  7  1  0
  7  8  1  0
  8  9  2  0
  8 10  2  0
  8 11  1  0
 11 12  2  0
 12 13  1  0
 13 14  2  0
 14 15  1  0
 15 16  2  0
 16 17  1  0
  7 18  1  0
 18 19  2  0
 19 20  1  0
 20 21  2  0
 21 22  1  0
 21 23  1  0
 23 24  2  0
  4 25  1  0
 25 26  1  0
 26  2  1  0
 24  5  1  0
 16 11  1  0
 24 18  1  0
M  END
>  <shape_align_shape_tanimoto>  (1) 
0.27630043535350612

>  <shape_align_color_tanimoto>  (1) 
0.012033633882906547

>  <metric>  (1) 
shape

>  <metric_score>  (1) 
0.276

>  <template_pid>  (1) 
6AHS

>  <template_shape_score>  (1) 
0.276

>  <template_color_score>  (1) 
0.012

>  <template_combo_score>  (1) 
0.144

$$$$
6AHS_color_pose
     RDKit          3D

 26 29  0  0  0  0  0  0  0  0999 V2000
    0.8385  -21.2011   -8.6009 C   0  0  0  0  0  0  0  0  0  0  0  0
    0.7992  -22.7084   -8.6024 C   0  0  0  0  0  0  0  0  0  0  0  0
    1.7493  -23.5191   -8.3740 N   0  0  0  0  0  0  0  0  0  0  0  0
    1.3028  -24.8795   -8.4758 C   0  0  2  0  0  0  0  0  0  0  0  0
    1.6350  -25.2684   -9.8550 C   0  0  0  0  0  0  0  0  0  0  0  0
    1.8771  -24.4949  -10.9772 C   0  0  0  0  0  0  0  0  0  0  0  0
    2.1445  -25.2671  -12.0388 N   0  0  0  0  0  0  0  0  0  0  0  0
    2.5081  -24.7507  -13.6534 S   0  0  0  0  0  0  0  0  0  0  0  0
    3.8276  -25.3480  -14.0296 O   0  0  0  0  0  0  0  0  0  0  0  0
    2.5054  -23.2660  -13.6858 O   0  0  0  0  0  0  0  0  0  0  0  0
    1.2423  -25.4026  -14.7027 C   0  0  0  0  0  0  0  0  0  0  0  0
    1.5735  -26.2639  -15.7384 C   0  0  0  0  0  0  0  0  0  0  0  0
    0.5396  -26.7453  -16.5306 C   0  0  0  0  0  0  0  0  0  0  0  0
   -0.7574  -26.3628  -16.2719 C   0  0  0  0  0  0  0  0  0  0  0  0
   -1.0838  -25.4975  -15.2304 C   0  0  0  0  0  0  0  0  0  0  0  0
   -0.0569  -25.0194  -14.4436 C   0  0  0  0  0  0  0  0  0  0  0  0
   -0.4560  -23.9196  -13.1172 Cl  0  0  0  0  0  0  0  0  0  0  0  0
    2.0838  -26.5603  -11.6377 C   0  0  0  0  0  0  0  0  0  0  0  0
    2.2739  -27.7447  -12.3236 C   0  0  0  0  0  0  0  0  0  0  0  0
    2.1589  -28.9717  -11.6973 C   0  0  0  0  0  0  0  0  0  0  0  0
    1.8436  -28.9785  -10.3453 C   0  0  0  0  0  0  0  0  0  0  0  0
    1.7030  -30.2671   -9.6023 C   0  0  0  0  0  0  0  0  0  0  0  0
    1.6491  -27.7854   -9.6413 C   0  0  0  0  0  0  0  0  0  0  0  0
    1.7668  -26.5847  -10.2765 C   0  0  0  0  0  0  0  0  0  0  0  0
   -0.0880  -24.7208   -8.1060 C   0  0  0  0  0  0  0  0  0  0  0  0
   -0.3860  -23.4865   -8.8525 N   0  0  0  0  0  0  0  0  0  0  0  0
  1  2  1  0
  2  3  2  0
  3  4  1  0
  4  5  1  6
  5  6  2  0
  6  7  1  0
  7  8  1  0
  8  9  2  0
  8 10  2  0
  8 11  1  0
 11 12  2  0
 12 13  1  0
 13 14  2  0
 14 15  1  0
 15 16  2  0
 16 17  1  0
  7 18  1  0
 18 19  2  0
 19 20  1  0
 20 21  2  0
 21 22  1  0
 21 23  1  0
 23 24  2  0
  4 25  1  0
 25 26  1  0
 26  2  1  0
 24  5  1  0
 16 11  1  0
 24 18  1  0
M  END
>  <shape_align_shape_tanimoto>  (2) 
0.22486897456255439

>  <shape_align_color_tanimoto>  (2) 
0.042431039177004637

>  <metric>  (2) 
color

>  <metric_score>  (2) 
0.042

>  <template_pid>  (2) 
6AHS

>  <template_shape_score>  (2) 
0.225

>  <template_color_score>  (2) 
0.042

>  <template_combo_score>  (2) 
0.134

$$$$
6AHS_combo_pose
     RDKit          3D

 26 29  0  0  0  0  0  0  0  0999 V2000
   -2.3549  -27.1419  -16.2951 C   0  0  0  0  0  0  0  0  0  0  0  0
   -1.8983  -28.2247  -15.3541 C   0  0  0  0  0  0  0  0  0  0  0  0
   -1.6988  -28.1012  -14.0950 N   0  0  0  0  0  0  0  0  0  0  0  0
   -1.2690  -29.3655  -13.5542 C   0  0  2  0  0  0  0  0  0  0  0  0
   -0.3222  -29.2068  -12.4209 C   0  0  0  0  0  0  0  0  0  0  0  0
    0.4927  -28.1111  -12.2545 C   0  0  0  0  0  0  0  0  0  0  0  0
    1.2232  -28.3008  -11.1166 N   0  0  0  0  0  0  0  0  0  0  0  0
    2.3640  -27.1244  -10.5740 S   0  0  0  0  0  0  0  0  0  0  0  0
    3.1340  -27.6973   -9.4119 O   0  0  0  0  0  0  0  0  0  0  0  0
    3.3267  -26.7516  -11.6663 O   0  0  0  0  0  0  0  0  0  0  0  0
    1.5713  -25.6573  -10.0375 C   0  0  0  0  0  0  0  0  0  0  0  0
    1.8329  -24.4298  -10.6519 C   0  0  0  0  0  0  0  0  0  0  0  0
    1.2211  -23.2622  -10.2489 C   0  0  0  0  0  0  0  0  0  0  0  0
    0.3216  -23.2599   -9.2173 C   0  0  0  0  0  0  0  0  0  0  0  0
    0.0463  -24.4483   -8.5971 C   0  0  0  0  0  0  0  0  0  0  0  0
    0.6629  -25.6256   -9.0032 C   0  0  0  0  0  0  0  0  0  0  0  0
    0.2557  -27.0803   -8.1609 Cl  0  0  0  0  0  0  0  0  0  0  0  0
    0.8845  -29.4822  -10.5737 C   0  0  0  0  0  0  0  0  0  0  0  0
    1.3218  -30.1366   -9.4402 C   0  0  0  0  0  0  0  0  0  0  0  0
    0.7826  -31.3672   -9.1272 C   0  0  0  0  0  0  0  0  0  0  0  0
   -0.1822  -31.9652   -9.9140 C   0  0  0  0  0  0  0  0  0  0  0  0
   -0.7650  -33.2981   -9.5732 C   0  0  0  0  0  0  0  0  0  0  0  0
   -0.6224  -31.3136  -11.0491 C   0  0  0  0  0  0  0  0  0  0  0  0
   -0.0923  -30.0803  -11.3766 C   0  0  0  0  0  0  0  0  0  0  0  0
   -0.6711  -30.0428  -14.7352 C   0  0  0  0  0  0  0  0  0  0  0  0
   -1.6172  -29.5738  -15.7636 N   0  0  0  0  0  0  0  0  0  0  0  0
  1  2  1  0
  2  3  2  0
  3  4  1  0
  4  5  1  1
  5  6  2  0
  6  7  1  0
  7  8  1  0
  8  9  2  0
  8 10  2  0
  8 11  1  0
 11 12  2  0
 12 13  1  0
 13 14  2  0
 14 15  1  0
 15 16  2  0
 16 17  1  0
  7 18  1  0
 18 19  2  0
 19 20  1  0
 20 21  2  0
 21 22  1  0
 21 23  1  0
 23 24  2  0
  4 25  1  0
 25 26  1  0
 26  2  1  0
 24  5  1  0
 16 11  1  0
 24 18  1  0
M  END
>  <shape_align_shape_tanimoto>  (3) 
0.27630043535350612

>  <shape_align_color_tanimoto>  (3) 
0.012033633882906547

>  <metric>  (3) 
combo

>  <metric_score>  (3) 
0.144

>  <template_pid>  (3) 
6AHS

>  <template_shape_score>  (3) 
0.276

>  <template_color_score>  (3) 
0.012

>  <template_combo_score>  (3) 
0.144

$$$$
