6HHJ_shape_pose
     RDKit          3D

 46 52  0  0  0  0  0  0  0  0999 V2000
   14.1495   -8.4608    5.2663 C   0  0  0  0  0  0  0  0  0  0  0  0
   15.1361   -7.3895    5.6399 C   0  0  0  0  0  0  0  0  0  0  0  0
   16.1972   -7.8801    6.5746 C   0  0  0  0  0  0  0  0  0  0  0  0
   16.1360   -9.0843    6.9241 O   0  0  0  0  0  0  0  0  0  0  0  0
   17.2042   -6.9945    7.0195 N   0  0  0  0  0  0  0  0  0  0  0  0
   18.2708   -7.3055    7.9010 C   0  0  0  0  0  0  0  0  0  0  0  0
   18.4908   -8.5338    8.4916 C   0  0  0  0  0  0  0  0  0  0  0  0
   19.5779   -8.7728    9.3556 C   0  0  0  0  0  0  0  0  0  0  0  0
   20.4879   -7.7691    9.6545 C   0  0  0  0  0  0  0  0  0  0  0  0
   20.2644   -6.5345    9.0588 C   0  0  0  0  0  0  0  0  0  0  0  0
   19.1908   -6.3021    8.2070 C   0  0  0  0  0  0  0  0  0  0  0  0
   21.2409   -5.6752    9.4539 N   0  0  0  0  0  0  0  0  0  0  0  0
   21.4043   -4.2948    9.0806 C   0  0  1  0  0  0  0  0  0  0  0  0
   21.1672   -3.2830   10.1591 C   0  0  0  0  0  0  0  0  0  0  0  0
   21.8553   -1.9764    9.9326 C   0  0  0  0  0  0  0  0  0  0  0  0
   22.1256   -1.5770    8.5911 N   0  0  2  0  0  0  0  0  0  0  0  0
   21.1053   -0.8290    7.9042 C   0  0  0  0  0  0  0  0  0  0  0  0
   19.7375   -0.9047    8.4396 C   0  0  0  0  0  0  0  0  0  0  0  0
   19.2491   -0.0131    9.4109 C   0  0  0  0  0  0  0  0  0  0  0  0
   17.9522   -0.1118    9.8978 C   0  0  0  0  0  0  0  0  0  0  0  0
   17.0981   -1.1207    9.4188 C   0  0  0  0  0  0  0  0  0  0  0  0
   15.7215   -1.2609    9.9070 C   0  0  0  0  0  0  0  0  0  0  0  0
   15.4649   -2.4070   10.6225 N   0  0  0  0  0  0  0  0  0  0  0  0
   14.2217   -2.6386   11.1274 C   0  0  0  0  0  0  0  0  0  0  0  0
   13.2193   -1.7072   10.9116 C   0  0  0  0  0  0  0  0  0  0  0  0
   13.4613   -0.5300   10.1829 C   0  0  0  0  0  0  0  0  0  0  0  0
   14.7342   -0.3125    9.6773 C   0  0  0  0  0  0  0  0  0  0  0  0
   15.1035    0.8742    8.9014 C   0  0  0  0  0  0  0  0  0  0  0  0
   15.5214    0.7024    7.5819 C   0  0  0  0  0  0  0  0  0  0  0  0
   15.8782    1.7825    6.8118 C   0  0  0  0  0  0  0  0  0  0  0  0
   15.8390    3.0789    7.3086 C   0  0  0  0  0  0  0  0  0  0  0  0
   15.4204    3.2756    8.6383 C   0  0  0  0  0  0  0  0  0  0  0  0
   15.0609    2.1646    9.4071 C   0  0  0  0  0  0  0  0  0  0  0  0
   11.8925   -1.9910   11.4715 C   0  0  0  0  0  0  0  0  0  0  0  0
   10.9588   -1.1734   11.2983 O   0  0  0  0  0  0  0  0  0  0  0  0
   11.6758   -3.1959   12.2088 N   0  0  0  0  0  0  0  0  0  0  0  0
   12.6338   -4.0398   12.3897 C   0  0  0  0  0  0  0  0  0  0  0  0
   14.0165   -3.8934   11.8895 C   0  0  0  0  0  0  0  0  0  0  0  0
   17.5604   -2.0118    8.4593 C   0  0  0  0  0  0  0  0  0  0  0  0
   18.8645   -1.8945    7.9844 C   0  0  0  0  0  0  0  0  0  0  0  0
   22.6645   -2.6678    7.7631 C   0  0  0  0  0  0  0  0  0  0  0  0
   22.8197   -3.9563    8.5691 C   0  0  0  0  0  0  0  0  0  0  0  0
   22.0622   -6.3860   10.2930 C   0  0  0  0  0  0  0  0  0  0  0  0
   23.0999   -5.9797   10.8929 O   0  0  0  0  0  0  0  0  0  0  0  0
   21.6034   -7.6557   10.4132 N   0  0  0  0  0  0  0  0  0  0  0  0
   22.1427   -8.7664   11.1904 C   0  0  0  0  0  0  0  0  0  0  0  0
  1  2  1  0
  2  3  1  0
  3  4  2  0
  3  5  1  0
  5  6  1  0
  6  7  2  0
  7  8  1  0
  8  9  2  0
  9 10  1  0
 10 11  2  0
 10 12  1  0
 13 12  1  1
 13 14  1  0
 14 15  1  0
 15 16  1  0
 16 17  1  6
 17 18  1  0
 18 19  2  0
 19 20  1  0
 20 21  2  0
 21 22  1  0
 22 23  2  0
 23 24  1  0
 24 25  2  0
 25 26  1  0
 26 27  2  0
 27 28  1  0
 28 29  2  0
 29 30  1  0
 30 31  2  0
 31 32  1  0
 32 33  2  0
 25 34  1  0
 34 35  2  0
 34 36  1  0
 36 37  2  0
 37 38  1  0
 21 39  1  0
 39 40  2  0
 16 41  1  0
 41 42  1  0
 12 43  1  0
 43 44  2  0
 43 45  1  0
 45 46  1  0
 11  6  1  0
 42 13  1  0
 45  9  1  0
 40 18  1  0
 27 22  1  0
 33 28  1  0
 38 24  1  0
M  CHG  1  16   1
M  END
>  <shape_align_shape_tanimoto>  (1) 
0.40668448548477676

>  <shape_align_color_tanimoto>  (1) 
0.080050107124515074

>  <metric>  (1) 
shape

>  <metric_score>  (1) 
0.407

>  <template_pid>  (1) 
6HHJ

>  <template_shape_score>  (1) 
0.407

>  <template_color_score>  (1) 
0.080

>  <template_combo_score>  (1) 
0.243

$$$$
6HHJ_color_pose
     RDKit          3D

 46 52  0  0  0  0  0  0  0  0999 V2000
   15.6873   -5.3679   15.6424 C   0  0  0  0  0  0  0  0  0  0  0  0
   15.3190   -5.7012   14.2052 C   0  0  0  0  0  0  0  0  0  0  0  0
   14.9628   -4.4287   13.5063 C   0  0  0  0  0  0  0  0  0  0  0  0
   14.9899   -3.3076   14.1026 O   0  0  0  0  0  0  0  0  0  0  0  0
   14.5925   -4.5097   12.1539 N   0  0  0  0  0  0  0  0  0  0  0  0
   14.2530   -3.2847   11.4919 C   0  0  0  0  0  0  0  0  0  0  0  0
   12.9720   -2.7869   11.4547 C   0  0  0  0  0  0  0  0  0  0  0  0
   12.7487   -1.5816   10.7823 C   0  0  0  0  0  0  0  0  0  0  0  0
   13.8103   -0.9174   10.1720 C   0  0  0  0  0  0  0  0  0  0  0  0
   15.0744   -1.4418   10.2283 C   0  0  0  0  0  0  0  0  0  0  0  0
   15.3276   -2.6284   10.8835 C   0  0  0  0  0  0  0  0  0  0  0  0
   15.9570   -0.6471    9.5768 N   0  0  0  0  0  0  0  0  0  0  0  0
   17.3758   -0.8255    9.3979 C   0  0  1  0  0  0  0  0  0  0  0  0
   17.7452   -1.7080    8.2292 C   0  0  0  0  0  0  0  0  0  0  0  0
   19.2173   -2.0225    8.3889 C   0  0  0  0  0  0  0  0  0  0  0  0
   20.0435   -0.8710    8.4688 N   0  0  2  0  0  0  0  0  0  0  0  0
   21.3963   -1.2258    8.8225 C   0  0  0  0  0  0  0  0  0  0  0  0
   21.6284   -2.6437    9.0816 C   0  0  0  0  0  0  0  0  0  0  0  0
   21.5148   -3.2448   10.3269 C   0  0  0  0  0  0  0  0  0  0  0  0
   21.7545   -4.6086   10.5042 C   0  0  0  0  0  0  0  0  0  0  0  0
   22.1142   -5.4070    9.4394 C   0  0  0  0  0  0  0  0  0  0  0  0
   22.3546   -6.8171    9.7001 C   0  0  0  0  0  0  0  0  0  0  0  0
   23.5802   -7.1614   10.1627 N   0  0  0  0  0  0  0  0  0  0  0  0
   23.9201   -8.4310   10.4448 C   0  0  0  0  0  0  0  0  0  0  0  0
   22.9952   -9.4365   10.2616 C   0  0  0  0  0  0  0  0  0  0  0  0
   21.7390   -9.1171    9.7918 C   0  0  0  0  0  0  0  0  0  0  0  0
   21.4169   -7.8059    9.5101 C   0  0  0  0  0  0  0  0  0  0  0  0
   20.0933   -7.4745    9.0102 C   0  0  0  0  0  0  0  0  0  0  0  0
   19.8520   -7.0338    7.7376 C   0  0  0  0  0  0  0  0  0  0  0  0
   18.5551   -6.7380    7.3555 C   0  0  0  0  0  0  0  0  0  0  0  0
   17.5137   -6.8848    8.2452 C   0  0  0  0  0  0  0  0  0  0  0  0
   17.7533   -7.3324    9.5394 C   0  0  0  0  0  0  0  0  0  0  0  0
   19.0398   -7.6221    9.9071 C   0  0  0  0  0  0  0  0  0  0  0  0
   23.3669  -10.7950   10.5669 C   0  0  0  0  0  0  0  0  0  0  0  0
   22.5597  -11.7507   10.4174 O   0  0  0  0  0  0  0  0  0  0  0  0
   24.6864  -11.0316   11.0480 N   0  0  0  0  0  0  0  0  0  0  0  0
   25.5600  -10.0997   11.2233 C   0  0  0  0  0  0  0  0  0  0  0  0
   25.2982   -8.6643   10.9449 C   0  0  0  0  0  0  0  0  0  0  0  0
   22.2282   -4.8174    8.2034 C   0  0  0  0  0  0  0  0  0  0  0  0
   21.9943   -3.4727    8.0154 C   0  0  0  0  0  0  0  0  0  0  0  0
   19.5973    0.1558    9.3613 C   0  0  0  0  0  0  0  0  0  0  0  0
   18.1244    0.4565    9.2437 C   0  0  0  0  0  0  0  0  0  0  0  0
   15.2199    0.3780    9.1160 C   0  0  0  0  0  0  0  0  0  0  0  0
   15.5891    1.3885    8.4401 O   0  0  0  0  0  0  0  0  0  0  0  0
   13.9218    0.2249    9.4697 N   0  0  0  0  0  0  0  0  0  0  0  0
   12.8179    1.1090    9.1669 C   0  0  0  0  0  0  0  0  0  0  0  0
  1  2  1  0
  2  3  1  0
  3  4  2  0
  3  5  1  0
  5  6  1  0
  6  7  2  0
  7  8  1  0
  8  9  2  0
  9 10  1  0
 10 11  2  0
 10 12  1  0
 13 12  1  6
 13 14  1  0
 14 15  1  0
 15 16  1  0
 16 17  1  1
 17 18  1  0
 18 19  2  0
 19 20  1  0
 20 21  2  0
 21 22  1  0
 22 23  2  0
 23 24  1  0
 24 25  2  0
 25 26  1  0
 26 27  2  0
 27 28  1  0
 28 29  2  0
 29 30  1  0
 30 31  2  0
 31 32  1  0
 32 33  2  0
 25 34  1  0
 34 35  2  0
 34 36  1  0
 36 37  2  0
 37 38  1  0
 21 39  1  0
 39 40  2  0
 16 41  1  0
 41 42  1  0
 12 43  1  0
 43 44  2  0
 43 45  1  0
 45 46  1  0
 11  6  1  0
 42 13  1  0
 45  9  1  0
 40 18  1  0
 27 22  1  0
 33 28  1  0
 38 24  1  0
M  CHG  1  16   1
M  END
>  <shape_align_shape_tanimoto>  (2) 
0.38194944488477972

>  <shape_align_color_tanimoto>  (2) 
0.12870943144718724

>  <metric>  (2) 
color

>  <metric_score>  (2) 
0.129

>  <template_pid>  (2) 
6HHJ

>  <template_shape_score>  (2) 
0.382

>  <template_color_score>  (2) 
0.129

>  <template_combo_score>  (2) 
0.255

$$$$
6HHJ_combo_pose
     RDKit          3D

 46 52  0  0  0  0  0  0  0  0999 V2000
   15.6873   -5.3679   15.6424 C   0  0  0  0  0  0  0  0  0  0  0  0
   15.3190   -5.7012   14.2052 C   0  0  0  0  0  0  0  0  0  0  0  0
   14.9628   -4.4287   13.5063 C   0  0  0  0  0  0  0  0  0  0  0  0
   14.9899   -3.3076   14.1026 O   0  0  0  0  0  0  0  0  0  0  0  0
   14.5925   -4.5097   12.1539 N   0  0  0  0  0  0  0  0  0  0  0  0
   14.2530   -3.2847   11.4919 C   0  0  0  0  0  0  0  0  0  0  0  0
   12.9720   -2.7869   11.4547 C   0  0  0  0  0  0  0  0  0  0  0  0
   12.7487   -1.5816   10.7823 C   0  0  0  0  0  0  0  0  0  0  0  0
   13.8103   -0.9174   10.1720 C   0  0  0  0  0  0  0  0  0  0  0  0
   15.0744   -1.4418   10.2283 C   0  0  0  0  0  0  0  0  0  0  0  0
   15.3276   -2.6284   10.8835 C   0  0  0  0  0  0  0  0  0  0  0  0
   15.9570   -0.6471    9.5768 N   0  0  0  0  0  0  0  0  0  0  0  0
   17.3758   -0.8255    9.3979 C   0  0  1  0  0  0  0  0  0  0  0  0
   17.7452   -1.7080    8.2292 C   0  0  0  0  0  0  0  0  0  0  0  0
   19.2173   -2.0225    8.3889 C   0  0  0  0  0  0  0  0  0  0  0  0
   20.0435   -0.8710    8.4688 N   0  0  2  0  0  0  0  0  0  0  0  0
   21.3963   -1.2258    8.8225 C   0  0  0  0  0  0  0  0  0  0  0  0
   21.6284   -2.6437    9.0816 C   0  0  0  0  0  0  0  0  0  0  0  0
   21.5148   -3.2448   10.3269 C   0  0  0  0  0  0  0  0  0  0  0  0
   21.7545   -4.6086   10.5042 C   0  0  0  0  0  0  0  0  0  0  0  0
   22.1142   -5.4070    9.4394 C   0  0  0  0  0  0  0  0  0  0  0  0
   22.3546   -6.8171    9.7001 C   0  0  0  0  0  0  0  0  0  0  0  0
   23.5802   -7.1614   10.1627 N   0  0  0  0  0  0  0  0  0  0  0  0
   23.9201   -8.4310   10.4448 C   0  0  0  0  0  0  0  0  0  0  0  0
   22.9952   -9.4365   10.2616 C   0  0  0  0  0  0  0  0  0  0  0  0
   21.7390   -9.1171    9.7918 C   0  0  0  0  0  0  0  0  0  0  0  0
   21.4169   -7.8059    9.5101 C   0  0  0  0  0  0  0  0  0  0  0  0
   20.0933   -7.4745    9.0102 C   0  0  0  0  0  0  0  0  0  0  0  0
   19.8520   -7.0338    7.7376 C   0  0  0  0  0  0  0  0  0  0  0  0
   18.5551   -6.7380    7.3555 C   0  0  0  0  0  0  0  0  0  0  0  0
   17.5137   -6.8848    8.2452 C   0  0  0  0  0  0  0  0  0  0  0  0
   17.7533   -7.3324    9.5394 C   0  0  0  0  0  0  0  0  0  0  0  0
   19.0398   -7.6221    9.9071 C   0  0  0  0  0  0  0  0  0  0  0  0
   23.3669  -10.7950   10.5669 C   0  0  0  0  0  0  0  0  0  0  0  0
   22.5597  -11.7507   10.4174 O   0  0  0  0  0  0  0  0  0  0  0  0
   24.6864  -11.0316   11.0480 N   0  0  0  0  0  0  0  0  0  0  0  0
   25.5600  -10.0997   11.2233 C   0  0  0  0  0  0  0  0  0  0  0  0
   25.2982   -8.6643   10.9449 C   0  0  0  0  0  0  0  0  0  0  0  0
   22.2282   -4.8174    8.2034 C   0  0  0  0  0  0  0  0  0  0  0  0
   21.9943   -3.4727    8.0154 C   0  0  0  0  0  0  0  0  0  0  0  0
   19.5973    0.1558    9.3613 C   0  0  0  0  0  0  0  0  0  0  0  0
   18.1244    0.4565    9.2437 C   0  0  0  0  0  0  0  0  0  0  0  0
   15.2199    0.3780    9.1160 C   0  0  0  0  0  0  0  0  0  0  0  0
   15.5891    1.3885    8.4401 O   0  0  0  0  0  0  0  0  0  0  0  0
   13.9218    0.2249    9.4697 N   0  0  0  0  0  0  0  0  0  0  0  0
   12.8179    1.1090    9.1669 C   0  0  0  0  0  0  0  0  0  0  0  0
  1  2  1  0
  2  3  1  0
  3  4  2  0
  3  5  1  0
  5  6  1  0
  6  7  2  0
  7  8  1  0
  8  9  2  0
  9 10  1  0
 10 11  2  0
 10 12  1  0
 13 12  1  6
 13 14  1  0
 14 15  1  0
 15 16  1  0
 16 17  1  1
 17 18  1  0
 18 19  2  0
 19 20  1  0
 20 21  2  0
 21 22  1  0
 22 23  2  0
 23 24  1  0
 24 25  2  0
 25 26  1  0
 26 27  2  0
 27 28  1  0
 28 29  2  0
 29 30  1  0
 30 31  2  0
 31 32  1  0
 32 33  2  0
 25 34  1  0
 34 35  2  0
 34 36  1  0
 36 37  2  0
 37 38  1  0
 21 39  1  0
 39 40  2  0
 16 41  1  0
 41 42  1  0
 12 43  1  0
 43 44  2  0
 43 45  1  0
 45 46  1  0
 11  6  1  0
 42 13  1  0
 45  9  1  0
 40 18  1  0
 27 22  1  0
 33 28  1  0
 38 24  1  0
M  CHG  1  16   1
M  END
>  <shape_align_shape_tanimoto>  (3) 
0.38194944488477972

>  <shape_align_color_tanimoto>  (3) 
0.12870943144718724

>  <metric>  (3) 
combo

>  <metric_score>  (3) 
0.255

>  <template_pid>  (3) 
6HHJ

>  <template_shape_score>  (3) 
0.382

>  <template_color_score>  (3) 
0.129

>  <template_combo_score>  (3) 
0.255

$$$$
