4B4M_shape_pose
     RDKit          3D

 28 30  0  0  0  0  0  0  0  0999 V2000
   35.1517   53.0787    7.9813 C   0  0  0  0  0  0  0  0  0  0  0  0
   36.4063   52.4482    8.3227 N   0  0  0  0  0  0  0  0  0  0  0  0
   36.5556   51.1505    7.7403 C   0  0  2  0  0  0  0  0  0  0  0  0
   35.5028   50.2223    8.2863 C   0  0  0  0  0  0  0  0  0  0  0  0
   34.3441   50.7580    8.4735 N   0  0  0  0  0  0  0  0  0  0  0  0
   35.7611   48.8574    8.5691 N   0  0  0  0  0  0  0  0  0  0  0  0
   34.6503   47.9523    8.8999 C   0  0  0  0  0  0  0  0  0  0  0  0
   34.1111   47.3176    7.6721 C   0  0  0  0  0  0  0  0  0  0  0  0
   33.1009   47.8634    6.9119 C   0  0  0  0  0  0  0  0  0  0  0  0
   32.6032   47.2611    5.7685 C   0  0  0  0  0  0  0  0  0  0  0  0
   33.1123   46.0569    5.3315 C   0  0  0  0  0  0  0  0  0  0  0  0
   34.1233   45.4890    6.0732 C   0  0  0  0  0  0  0  0  0  0  0  0
   34.6188   46.0980    7.2200 C   0  0  0  0  0  0  0  0  0  0  0  0
   37.0885   48.3528    8.5338 C   0  0  0  0  0  0  0  0  0  0  0  0
   37.3773   47.1535    8.7763 O   0  0  0  0  0  0  0  0  0  0  0  0
   38.1713   49.2157    8.2128 N   0  0  0  0  0  0  0  0  0  0  0  0
   37.8979   50.5752    7.9319 C   0  0  0  0  0  0  0  0  0  0  0  0
   38.8836   51.3804    7.8335 O   0  0  0  0  0  0  0  0  0  0  0  0
   36.6929   52.5666    9.9871 S   0  0  0  0  0  0  0  0  0  0  0  0
   38.0658   52.0571   10.3749 O   0  0  0  0  0  0  0  0  0  0  0  0
   36.7024   54.0261   10.4246 O   0  0  0  0  0  0  0  0  0  0  0  0
   35.5107   51.7818   10.9979 C   0  0  0  0  0  0  0  0  0  0  0  0
   34.3566   52.4110   11.4320 C   0  0  0  0  0  0  0  0  0  0  0  0
   33.4234   51.7981   12.2395 C   0  0  0  0  0  0  0  0  0  0  0  0
   33.6078   50.4991   12.6581 C   0  0  0  0  0  0  0  0  0  0  0  0
   32.6655   49.9389   13.4496 F   0  0  0  0  0  0  0  0  0  0  0  0
   34.7470   49.8423   12.2444 C   0  0  0  0  0  0  0  0  0  0  0  0
   35.6672   50.4627   11.4415 C   0  0  0  0  0  0  0  0  0  0  0  0
  1  2  1  0
  3  2  1  1
  3  4  1  0
  4  5  2  0
  4  6  1  0
  6  7  1  0
  7  8  1  0
  8  9  2  0
  9 10  1  0
 10 11  2  0
 11 12  1  0
 12 13  2  0
  6 14  1  0
 14 15  2  0
 14 16  1  0
 16 17  1  0
 17 18  2  0
  2 19  1  0
 19 20  2  0
 19 21  2  0
 19 22  1  0
 22 23  2  0
 23 24  1  0
 24 25  2  0
 25 26  1  0
 25 27  1  0
 27 28  2  0
 17  3  1  0
 28 22  1  0
 13  8  1  0
M  END
>  <shape_align_shape_tanimoto>  (1) 
0.58544134838767292

>  <shape_align_color_tanimoto>  (1) 
0.042528946838067599

>  <metric>  (1) 
shape

>  <metric_score>  (1) 
0.585

>  <template_pid>  (1) 
4B4M

>  <template_shape_score>  (1) 
0.585

>  <template_color_score>  (1) 
0.043

>  <template_combo_score>  (1) 
0.314

$$$$
4B4M_color_pose
     RDKit          3D

 28 30  0  0  0  0  0  0  0  0999 V2000
   37.0102   51.0600    7.1932 C   0  0  0  0  0  0  0  0  0  0  0  0
   36.6016   50.9164    8.5372 N   0  0  0  0  0  0  0  0  0  0  0  0
   35.9082   51.9912    9.1314 C   0  0  2  0  0  0  0  0  0  0  0  0
   36.2844   52.2842   10.5212 C   0  0  0  0  0  0  0  0  0  0  0  0
   37.4854   52.7601   10.7206 N   0  0  0  0  0  0  0  0  0  0  0  0
   35.4428   52.0879   11.6481 N   0  0  0  0  0  0  0  0  0  0  0  0
   35.9801   52.2616   12.9838 C   0  0  0  0  0  0  0  0  0  0  0  0
   36.5403   51.0254   13.5533 C   0  0  0  0  0  0  0  0  0  0  0  0
   35.7201   50.1714   14.2958 C   0  0  0  0  0  0  0  0  0  0  0  0
   36.2319   49.0049   14.8383 C   0  0  0  0  0  0  0  0  0  0  0  0
   37.5555   48.6415   14.6708 C   0  0  0  0  0  0  0  0  0  0  0  0
   38.3701   49.4773   13.9406 C   0  0  0  0  0  0  0  0  0  0  0  0
   37.8442   50.6352   13.4073 C   0  0  0  0  0  0  0  0  0  0  0  0
   34.0857   51.7234   11.4375 C   0  0  0  0  0  0  0  0  0  0  0  0
   33.2943   51.5364   12.3959 O   0  0  0  0  0  0  0  0  0  0  0  0
   33.5900   51.5611   10.1300 N   0  0  0  0  0  0  0  0  0  0  0  0
   34.4472   51.7625    9.0422 C   0  0  0  0  0  0  0  0  0  0  0  0
   33.9362   51.7491    7.8778 O   0  0  0  0  0  0  0  0  0  0  0  0
   36.5755   49.4052    9.2091 S   0  0  0  0  0  0  0  0  0  0  0  0
   36.3086   49.4807   10.6759 O   0  0  0  0  0  0  0  0  0  0  0  0
   37.9619   48.7874    9.0795 O   0  0  0  0  0  0  0  0  0  0  0  0
   35.4610   48.3548    8.3677 C   0  0  0  0  0  0  0  0  0  0  0  0
   34.1293   48.2390    8.7258 C   0  0  0  0  0  0  0  0  0  0  0  0
   33.2752   47.4135    8.0572 C   0  0  0  0  0  0  0  0  0  0  0  0
   33.7143   46.6646    6.9981 C   0  0  0  0  0  0  0  0  0  0  0  0
   32.8773   45.8287    6.3105 F   0  0  0  0  0  0  0  0  0  0  0  0
   35.0466   46.7461    6.5985 C   0  0  0  0  0  0  0  0  0  0  0  0
   35.8965   47.5972    7.2993 C   0  0  0  0  0  0  0  0  0  0  0  0
  1  2  1  0
  3  2  1  1
  3  4  1  0
  4  5  2  0
  4  6  1  0
  6  7  1  0
  7  8  1  0
  8  9  2  0
  9 10  1  0
 10 11  2  0
 11 12  1  0
 12 13  2  0
  6 14  1  0
 14 15  2  0
 14 16  1  0
 16 17  1  0
 17 18  2  0
  2 19  1  0
 19 20  2  0
 19 21  2  0
 19 22  1  0
 22 23  2  0
 23 24  1  0
 24 25  2  0
 25 26  1  0
 25 27  1  0
 27 28  2  0
 17  3  1  0
 28 22  1  0
 13  8  1  0
M  END
>  <shape_align_shape_tanimoto>  (2) 
0.56104998263454664

>  <shape_align_color_tanimoto>  (2) 
0.1829044528535187

>  <metric>  (2) 
color

>  <metric_score>  (2) 
0.183

>  <template_pid>  (2) 
4B4M

>  <template_shape_score>  (2) 
0.561

>  <template_color_score>  (2) 
0.183

>  <template_combo_score>  (2) 
0.372

$$$$
4B4M_combo_pose
     RDKit          3D

 28 30  0  0  0  0  0  0  0  0999 V2000
   37.0102   51.0600    7.1932 C   0  0  0  0  0  0  0  0  0  0  0  0
   36.6016   50.9164    8.5372 N   0  0  0  0  0  0  0  0  0  0  0  0
   35.9082   51.9912    9.1314 C   0  0  2  0  0  0  0  0  0  0  0  0
   36.2844   52.2842   10.5212 C   0  0  0  0  0  0  0  0  0  0  0  0
   37.4854   52.7601   10.7206 N   0  0  0  0  0  0  0  0  0  0  0  0
   35.4428   52.0879   11.6481 N   0  0  0  0  0  0  0  0  0  0  0  0
   35.9801   52.2616   12.9838 C   0  0  0  0  0  0  0  0  0  0  0  0
   36.5403   51.0254   13.5533 C   0  0  0  0  0  0  0  0  0  0  0  0
   35.7201   50.1714   14.2958 C   0  0  0  0  0  0  0  0  0  0  0  0
   36.2319   49.0049   14.8383 C   0  0  0  0  0  0  0  0  0  0  0  0
   37.5555   48.6415   14.6708 C   0  0  0  0  0  0  0  0  0  0  0  0
   38.3701   49.4773   13.9406 C   0  0  0  0  0  0  0  0  0  0  0  0
   37.8442   50.6352   13.4073 C   0  0  0  0  0  0  0  0  0  0  0  0
   34.0857   51.7234   11.4375 C   0  0  0  0  0  0  0  0  0  0  0  0
   33.2943   51.5364   12.3959 O   0  0  0  0  0  0  0  0  0  0  0  0
   33.5900   51.5611   10.1300 N   0  0  0  0  0  0  0  0  0  0  0  0
   34.4472   51.7625    9.0422 C   0  0  0  0  0  0  0  0  0  0  0  0
   33.9362   51.7491    7.8778 O   0  0  0  0  0  0  0  0  0  0  0  0
   36.5755   49.4052    9.2091 S   0  0  0  0  0  0  0  0  0  0  0  0
   36.3086   49.4807   10.6759 O   0  0  0  0  0  0  0  0  0  0  0  0
   37.9619   48.7874    9.0795 O   0  0  0  0  0  0  0  0  0  0  0  0
   35.4610   48.3548    8.3677 C   0  0  0  0  0  0  0  0  0  0  0  0
   34.1293   48.2390    8.7258 C   0  0  0  0  0  0  0  0  0  0  0  0
   33.2752   47.4135    8.0572 C   0  0  0  0  0  0  0  0  0  0  0  0
   33.7143   46.6646    6.9981 C   0  0  0  0  0  0  0  0  0  0  0  0
   32.8773   45.8287    6.3105 F   0  0  0  0  0  0  0  0  0  0  0  0
   35.0466   46.7461    6.5985 C   0  0  0  0  0  0  0  0  0  0  0  0
   35.8965   47.5972    7.2993 C   0  0  0  0  0  0  0  0  0  0  0  0
  1  2  1  0
  3  2  1  1
  3  4  1  0
  4  5  2  0
  4  6  1  0
  6  7  1  0
  7  8  1  0
  8  9  2  0
  9 10  1  0
 10 11  2  0
 11 12  1  0
 12 13  2  0
  6 14  1  0
 14 15  2  0
 14 16  1  0
 16 17  1  0
 17 18  2  0
  2 19  1  0
 19 20  2  0
 19 21  2  0
 19 22  1  0
 22 23  2  0
 23 24  1  0
 24 25  2  0
 25 26  1  0
 25 27  1  0
 27 28  2  0
 17  3  1  0
 28 22  1  0
 13  8  1  0
M  END
>  <shape_align_shape_tanimoto>  (3) 
0.56104998263454664

>  <shape_align_color_tanimoto>  (3) 
0.1829044528535187

>  <metric>  (3) 
combo

>  <metric_score>  (3) 
0.372

>  <template_pid>  (3) 
4B4M

>  <template_shape_score>  (3) 
0.561

>  <template_color_score>  (3) 
0.183

>  <template_combo_score>  (3) 
0.372

$$$$
