4G31_shape_pose
     RDKit          3D

 33 37  0  0  0  0  0  0  0  0999 V2000
  -28.8184    7.6138  -13.8282 C   0  0  0  0  0  0  0  0  0  0  0  0
  -28.5080    6.8216  -12.6386 N   0  0  0  0  0  0  0  0  0  0  0  0
  -27.7518    7.2760  -11.6336 C   0  0  0  0  0  0  0  0  0  0  0  0
  -27.6548    6.2757  -10.6520 C   0  0  0  0  0  0  0  0  0  0  0  0
  -26.8937    6.4761   -9.4423 C   0  0  0  0  0  0  0  0  0  0  0  0
  -27.1996    7.6411   -8.7214 C   0  0  0  0  0  0  0  0  0  0  0  0
  -26.5264    7.9462   -7.5556 C   0  0  0  0  0  0  0  0  0  0  0  0
  -25.5408    7.1459   -7.0441 C   0  0  0  0  0  0  0  0  0  0  0  0
  -25.2407    6.0022   -7.7556 C   0  0  0  0  0  0  0  0  0  0  0  0
  -24.2259    5.3939   -7.0620 C   0  0  0  0  0  0  0  0  0  0  0  0
  -23.9493    6.1795   -5.9673 C   0  0  0  0  0  0  0  0  0  0  0  0
  -24.7747    7.2740   -5.9590 N   0  0  0  0  0  0  0  0  0  0  0  0
  -24.6831    8.2610   -4.9598 C   0  0  0  0  0  0  0  0  0  0  0  0
  -23.7576    8.1146   -4.0918 O   0  0  0  0  0  0  0  0  0  0  0  0
  -25.5383    9.4466   -4.7995 C   0  0  0  0  0  0  0  0  0  0  0  0
  -24.8935   10.6867   -5.2928 C   0  0  0  0  0  0  0  0  0  0  0  0
  -23.7581   10.5009   -6.0954 C   0  0  0  0  0  0  0  0  0  0  0  0
  -23.1051   11.5885   -6.6327 C   0  0  0  0  0  0  0  0  0  0  0  0
  -23.5712   12.8789   -6.3795 C   0  0  0  0  0  0  0  0  0  0  0  0
  -24.6983   13.0433   -5.5813 C   0  0  0  0  0  0  0  0  0  0  0  0
  -25.1865   14.4343   -5.3364 C   0  0  0  0  0  0  0  0  0  0  0  0
  -25.9732   14.3904   -4.2066 F   0  0  0  0  0  0  0  0  0  0  0  0
  -24.1644   15.3500   -5.2516 F   0  0  0  0  0  0  0  0  0  0  0  0
  -26.0021   14.8398   -6.3881 F   0  0  0  0  0  0  0  0  0  0  0  0
  -25.3705   11.9530   -5.0297 C   0  0  0  0  0  0  0  0  0  0  0  0
  -25.9114    5.6723   -8.9430 C   0  0  0  0  0  0  0  0  0  0  0  0
  -28.3823    5.2402  -11.1372 C   0  0  0  0  0  0  0  0  0  0  0  0
  -28.6522    3.9988  -10.6117 C   0  0  0  0  0  0  0  0  0  0  0  0
  -28.1389    3.6171   -9.3347 N   0  0  0  0  0  0  0  0  0  0  0  0
  -29.4031    3.1494  -11.2778 N   0  0  0  0  0  0  0  0  0  0  0  0
  -29.9493    3.4329  -12.4960 C   0  0  0  0  0  0  0  0  0  0  0  0
  -29.6902    4.6661  -13.0327 N   0  0  0  0  0  0  0  0  0  0  0  0
  -28.9254    5.5519  -12.3727 C   0  0  0  0  0  0  0  0  0  0  0  0
  1  2  1  0
  2  3  1  0
  3  4  2  0
  4  5  1  0
  5  6  2  0
  6  7  1  0
  7  8  2  0
  8  9  1  0
  9 10  1  0
 10 11  2  0
 11 12  1  0
 12 13  1  0
 13 14  2  0
 13 15  1  0
 15 16  1  0
 16 17  2  0
 17 18  1  0
 18 19  2  0
 19 20  1  0
 20 21  1  0
 21 22  1  0
 21 23  1  0
 21 24  1  0
 20 25  2  0
  9 26  2  0
  4 27  1  0
 27 28  2  0
 28 29  1  0
 28 30  1  0
 30 31  2  0
 31 32  1  0
 32 33  2  0
 33  2  1  0
 26  5  1  0
 33 27  1  0
 12  8  1  0
 25 16  1  0
M  END
>  <shape_align_shape_tanimoto>  (1) 
0.63984957402096132

>  <shape_align_color_tanimoto>  (1) 
0.07603337005235293

>  <metric>  (1) 
shape

>  <metric_score>  (1) 
0.640

>  <template_pid>  (1) 
4G31

>  <template_shape_score>  (1) 
0.640

>  <template_color_score>  (1) 
0.076

>  <template_combo_score>  (1) 
0.358

$$$$
4G31_color_pose
     RDKit          3D

 33 37  0  0  0  0  0  0  0  0999 V2000
  -28.6661    7.4805  -12.9741 C   0  0  0  0  0  0  0  0  0  0  0  0
  -28.1678    6.8822  -11.7544 N   0  0  0  0  0  0  0  0  0  0  0  0
  -27.5506    7.5613  -10.7730 C   0  0  0  0  0  0  0  0  0  0  0  0
  -27.2270    6.6124   -9.7854 C   0  0  0  0  0  0  0  0  0  0  0  0
  -26.5200    7.0099   -8.5714 C   0  0  0  0  0  0  0  0  0  0  0  0
  -27.0674    8.0160   -7.8153 C   0  0  0  0  0  0  0  0  0  0  0  0
  -26.4497    8.4527   -6.6633 C   0  0  0  0  0  0  0  0  0  0  0  0
  -25.2692    7.8964   -6.2295 C   0  0  0  0  0  0  0  0  0  0  0  0
  -24.7394    6.8839   -7.0119 C   0  0  0  0  0  0  0  0  0  0  0  0
  -23.5659    6.5060   -6.4061 C   0  0  0  0  0  0  0  0  0  0  0  0
  -23.4366    7.3073   -5.2807 C   0  0  0  0  0  0  0  0  0  0  0  0
  -24.4781    8.1548   -5.1740 N   0  0  0  0  0  0  0  0  0  0  0  0
  -24.5758    9.1279   -4.1567 C   0  0  0  0  0  0  0  0  0  0  0  0
  -23.5616    9.1939   -3.3646 O   0  0  0  0  0  0  0  0  0  0  0  0
  -25.6580   10.0614   -3.8849 C   0  0  0  0  0  0  0  0  0  0  0  0
  -25.5152   11.3600   -4.5988 C   0  0  0  0  0  0  0  0  0  0  0  0
  -26.5818   12.2252   -4.6405 C   0  0  0  0  0  0  0  0  0  0  0  0
  -26.5549   13.4386   -5.3147 C   0  0  0  0  0  0  0  0  0  0  0  0
  -25.3760   13.7759   -5.9744 C   0  0  0  0  0  0  0  0  0  0  0  0
  -24.3036   12.9179   -5.9373 C   0  0  0  0  0  0  0  0  0  0  0  0
  -23.0486   13.2429   -6.6375 C   0  0  0  0  0  0  0  0  0  0  0  0
  -22.5308   12.1067   -7.2717 F   0  0  0  0  0  0  0  0  0  0  0  0
  -22.1170   13.8153   -5.7976 F   0  0  0  0  0  0  0  0  0  0  0  0
  -23.3124   14.1583   -7.6352 F   0  0  0  0  0  0  0  0  0  0  0  0
  -24.3587   11.7100   -5.2559 C   0  0  0  0  0  0  0  0  0  0  0  0
  -25.3311    6.4248   -8.1703 C   0  0  0  0  0  0  0  0  0  0  0  0
  -27.6555    5.3692  -10.1850 C   0  0  0  0  0  0  0  0  0  0  0  0
  -27.5795    4.1515   -9.5717 C   0  0  0  0  0  0  0  0  0  0  0  0
  -26.9730    3.9851   -8.2777 N   0  0  0  0  0  0  0  0  0  0  0  0
  -28.1110    3.0723  -10.2172 N   0  0  0  0  0  0  0  0  0  0  0  0
  -28.6786    3.2574  -11.4171 C   0  0  0  0  0  0  0  0  0  0  0  0
  -28.7493    4.4637  -12.0139 N   0  0  0  0  0  0  0  0  0  0  0  0
  -28.2423    5.5733  -11.4261 C   0  0  0  0  0  0  0  0  0  0  0  0
  1  2  1  0
  2  3  1  0
  3  4  2  0
  4  5  1  0
  5  6  2  0
  6  7  1  0
  7  8  2  0
  8  9  1  0
  9 10  1  0
 10 11  2  0
 11 12  1  0
 12 13  1  0
 13 14  2  0
 13 15  1  0
 15 16  1  0
 16 17  2  0
 17 18  1  0
 18 19  2  0
 19 20  1  0
 20 21  1  0
 21 22  1  0
 21 23  1  0
 21 24  1  0
 20 25  2  0
  9 26  2  0
  4 27  1  0
 27 28  2  0
 28 29  1  0
 28 30  1  0
 30 31  2  0
 31 32  1  0
 32 33  2  0
 33  2  1  0
 26  5  1  0
 33 27  1  0
 12  8  1  0
 25 16  1  0
M  END
>  <shape_align_shape_tanimoto>  (2) 
0.62596370797142487

>  <shape_align_color_tanimoto>  (2) 
0.16463717400562033

>  <metric>  (2) 
color

>  <metric_score>  (2) 
0.165

>  <template_pid>  (2) 
4G31

>  <template_shape_score>  (2) 
0.626

>  <template_color_score>  (2) 
0.165

>  <template_combo_score>  (2) 
0.395

$$$$
4G31_combo_pose
     RDKit          3D

 33 37  0  0  0  0  0  0  0  0999 V2000
  -28.6661    7.4805  -12.9741 C   0  0  0  0  0  0  0  0  0  0  0  0
  -28.1678    6.8822  -11.7544 N   0  0  0  0  0  0  0  0  0  0  0  0
  -27.5506    7.5613  -10.7730 C   0  0  0  0  0  0  0  0  0  0  0  0
  -27.2270    6.6124   -9.7854 C   0  0  0  0  0  0  0  0  0  0  0  0
  -26.5200    7.0099   -8.5714 C   0  0  0  0  0  0  0  0  0  0  0  0
  -27.0674    8.0160   -7.8153 C   0  0  0  0  0  0  0  0  0  0  0  0
  -26.4497    8.4527   -6.6633 C   0  0  0  0  0  0  0  0  0  0  0  0
  -25.2692    7.8964   -6.2295 C   0  0  0  0  0  0  0  0  0  0  0  0
  -24.7394    6.8839   -7.0119 C   0  0  0  0  0  0  0  0  0  0  0  0
  -23.5659    6.5060   -6.4061 C   0  0  0  0  0  0  0  0  0  0  0  0
  -23.4366    7.3073   -5.2807 C   0  0  0  0  0  0  0  0  0  0  0  0
  -24.4781    8.1548   -5.1740 N   0  0  0  0  0  0  0  0  0  0  0  0
  -24.5758    9.1279   -4.1567 C   0  0  0  0  0  0  0  0  0  0  0  0
  -23.5616    9.1939   -3.3646 O   0  0  0  0  0  0  0  0  0  0  0  0
  -25.6580   10.0614   -3.8849 C   0  0  0  0  0  0  0  0  0  0  0  0
  -25.5152   11.3600   -4.5988 C   0  0  0  0  0  0  0  0  0  0  0  0
  -26.5818   12.2252   -4.6405 C   0  0  0  0  0  0  0  0  0  0  0  0
  -26.5549   13.4386   -5.3147 C   0  0  0  0  0  0  0  0  0  0  0  0
  -25.3760   13.7759   -5.9744 C   0  0  0  0  0  0  0  0  0  0  0  0
  -24.3036   12.9179   -5.9373 C   0  0  0  0  0  0  0  0  0  0  0  0
  -23.0486   13.2429   -6.6375 C   0  0  0  0  0  0  0  0  0  0  0  0
  -22.5308   12.1067   -7.2717 F   0  0  0  0  0  0  0  0  0  0  0  0
  -22.1170   13.8153   -5.7976 F   0  0  0  0  0  0  0  0  0  0  0  0
  -23.3124   14.1583   -7.6352 F   0  0  0  0  0  0  0  0  0  0  0  0
  -24.3587   11.7100   -5.2559 C   0  0  0  0  0  0  0  0  0  0  0  0
  -25.3311    6.4248   -8.1703 C   0  0  0  0  0  0  0  0  0  0  0  0
  -27.6555    5.3692  -10.1850 C   0  0  0  0  0  0  0  0  0  0  0  0
  -27.5795    4.1515   -9.5717 C   0  0  0  0  0  0  0  0  0  0  0  0
  -26.9730    3.9851   -8.2777 N   0  0  0  0  0  0  0  0  0  0  0  0
  -28.1110    3.0723  -10.2172 N   0  0  0  0  0  0  0  0  0  0  0  0
  -28.6786    3.2574  -11.4171 C   0  0  0  0  0  0  0  0  0  0  0  0
  -28.7493    4.4637  -12.0139 N   0  0  0  0  0  0  0  0  0  0  0  0
  -28.2423    5.5733  -11.4261 C   0  0  0  0  0  0  0  0  0  0  0  0
  1  2  1  0
  2  3  1  0
  3  4  2  0
  4  5  1  0
  5  6  2  0
  6  7  1  0
  7  8  2  0
  8  9  1  0
  9 10  1  0
 10 11  2  0
 11 12  1  0
 12 13  1  0
 13 14  2  0
 13 15  1  0
 15 16  1  0
 16 17  2  0
 17 18  1  0
 18 19  2  0
 19 20  1  0
 20 21  1  0
 21 22  1  0
 21 23  1  0
 21 24  1  0
 20 25  2  0
  9 26  2  0
  4 27  1  0
 27 28  2  0
 28 29  1  0
 28 30  1  0
 30 31  2  0
 31 32  1  0
 32 33  2  0
 33  2  1  0
 26  5  1  0
 33 27  1  0
 12  8  1  0
 25 16  1  0
M  END
>  <shape_align_shape_tanimoto>  (3) 
0.62596370797142487

>  <shape_align_color_tanimoto>  (3) 
0.16463717400562033

>  <metric>  (3) 
combo

>  <metric_score>  (3) 
0.395

>  <template_pid>  (3) 
4G31

>  <template_shape_score>  (3) 
0.626

>  <template_color_score>  (3) 
0.165

>  <template_combo_score>  (3) 
0.395

$$$$
