6S57_shape_pose
     RDKit          3D

 30 32  0  0  0  0  0  0  0  0999 V2000
    2.1664  -26.6093  -32.6904 C   0  0  0  0  0  0  0  0  0  0  0  0
    1.3424  -26.8195  -31.4876 C   0  0  0  0  0  0  0  0  0  0  0  0
    0.0017  -26.5210  -31.5687 C   0  0  0  0  0  0  0  0  0  0  0  0
   -0.8188  -26.7307  -30.4862 C   0  0  0  0  0  0  0  0  0  0  0  0
   -0.3144  -27.2462  -29.2921 C   0  0  0  0  0  0  0  0  0  0  0  0
   -1.2489  -27.4207  -28.2468 N   0  0  0  0  0  0  0  0  0  0  0  0
   -0.9635  -27.9246  -26.9588 C   0  0  0  0  0  0  0  0  0  0  0  0
    0.1760  -28.2788  -26.5974 O   0  0  0  0  0  0  0  0  0  0  0  0
   -2.0536  -28.0626  -25.9290 C   0  0  0  0  0  0  0  0  0  0  0  0
   -1.4272  -28.6032  -24.7327 N   0  0  0  0  0  0  0  0  0  0  0  0
   -1.3099  -30.0076  -24.4677 C   0  0  0  0  0  0  0  0  0  0  0  0
   -1.7235  -30.9420  -25.2174 O   0  0  0  0  0  0  0  0  0  0  0  0
   -0.6429  -30.1565  -23.2071 N   0  0  0  0  0  0  0  0  0  0  0  0
    0.0337  -28.8985  -22.9639 C   0  0  0  0  0  0  0  0  0  0  0  0
    0.1843  -28.6554  -21.4797 C   0  0  0  0  0  0  0  0  0  0  0  0
    1.4427  -28.9381  -23.5539 C   0  0  0  0  0  0  0  0  0  0  0  0
   -0.8352  -27.9092  -23.6395 C   0  0  0  0  0  0  0  0  0  0  0  0
   -1.0557  -26.7005  -23.3682 O   0  0  0  0  0  0  0  0  0  0  0  0
    1.0090  -27.5261  -29.2525 C   0  0  0  0  0  0  0  0  0  0  0  0
    1.8891  -27.3320  -30.3230 C   0  0  0  0  0  0  0  0  0  0  0  0
    3.5836  -27.6903  -30.1413 S   0  0  0  0  0  0  0  0  0  0  0  0
    3.7635  -28.3837  -28.8000 O   0  0  0  0  0  0  0  0  0  0  0  0
    4.0743  -28.5860  -31.2507 O   0  0  0  0  0  0  0  0  0  0  0  0
    4.4784  -26.2237  -30.0771 N   0  0  0  0  0  0  0  0  0  0  0  0
    5.1334  -26.1057  -28.7709 C   0  0  0  0  0  0  0  0  0  0  0  0
    6.4069  -25.3385  -28.9789 C   0  0  0  0  0  0  0  0  0  0  0  0
    6.2224  -23.8553  -28.6369 C   0  0  0  0  0  0  0  0  0  0  0  0
    5.2487  -23.2929  -29.6363 C   0  0  0  0  0  0  0  0  0  0  0  0
    3.9066  -23.8959  -29.4020 C   0  0  0  0  0  0  0  0  0  0  0  0
    3.6138  -25.1135  -30.2572 C   0  0  0  0  0  0  0  0  0  0  0  0
  1  2  1  0
  2  3  2  0
  3  4  1  0
  4  5  2  0
  5  6  1  0
  6  7  1  0
  7  8  2  0
  7  9  1  0
  9 10  1  0
 10 11  1  0
 11 12  2  0
 11 13  1  0
 13 14  1  0
 14 15  1  0
 14 16  1  0
 14 17  1  0
 17 18  2  0
  5 19  1  0
 19 20  2  0
 20 21  1  0
 21 22  2  0
 21 23  2  0
 21 24  1  0
 24 25  1  0
 25 26  1  0
 26 27  1  0
 27 28  1  0
 28 29  1  0
 29 30  1  0
 20  2  1  0
 30 24  1  0
 17 10  1  0
M  END
>  <shape_align_shape_tanimoto>  (1) 
0.74851653781093086

>  <shape_align_color_tanimoto>  (1) 
0.015382522887285891

>  <metric>  (1) 
shape

>  <metric_score>  (1) 
0.749

>  <template_pid>  (1) 
6S57

>  <template_shape_score>  (1) 
0.749

>  <template_color_score>  (1) 
0.015

>  <template_combo_score>  (1) 
0.382

$$$$
6S57_color_pose
     RDKit          3D

 30 32  0  0  0  0  0  0  0  0999 V2000
    2.8253  -25.5942  -33.2407 C   0  0  0  0  0  0  0  0  0  0  0  0
    1.9519  -26.1459  -32.1649 C   0  0  0  0  0  0  0  0  0  0  0  0
    0.6664  -26.5267  -32.4499 C   0  0  0  0  0  0  0  0  0  0  0  0
   -0.1423  -27.0355  -31.4628 C   0  0  0  0  0  0  0  0  0  0  0  0
    0.3034  -27.1838  -30.1492 C   0  0  0  0  0  0  0  0  0  0  0  0
   -0.6112  -27.7132  -29.2254 N   0  0  0  0  0  0  0  0  0  0  0  0
   -0.3862  -27.9424  -27.8507 C   0  0  0  0  0  0  0  0  0  0  0  0
    0.6972  -27.6849  -27.2952 O   0  0  0  0  0  0  0  0  0  0  0  0
   -1.4677  -28.5168  -26.9914 C   0  0  0  0  0  0  0  0  0  0  0  0
   -1.0593  -28.6799  -25.6324 N   0  0  0  0  0  0  0  0  0  0  0  0
   -0.4462  -29.8793  -25.1344 C   0  0  0  0  0  0  0  0  0  0  0  0
   -0.1774  -30.9325  -25.7736 O   0  0  0  0  0  0  0  0  0  0  0  0
   -0.1641  -29.7162  -23.7427 N   0  0  0  0  0  0  0  0  0  0  0  0
   -0.2643  -28.3034  -23.4221 C   0  0  0  0  0  0  0  0  0  0  0  0
    1.1231  -27.7313  -23.5658 C   0  0  0  0  0  0  0  0  0  0  0  0
   -0.8359  -28.0839  -22.0455 C   0  0  0  0  0  0  0  0  0  0  0  0
   -1.1350  -27.8048  -24.5134 C   0  0  0  0  0  0  0  0  0  0  0  0
   -1.8651  -26.7617  -24.5161 O   0  0  0  0  0  0  0  0  0  0  0  0
    1.5903  -26.7940  -29.9009 C   0  0  0  0  0  0  0  0  0  0  0  0
    2.4254  -26.2830  -30.8585 C   0  0  0  0  0  0  0  0  0  0  0  0
    4.0614  -25.7598  -30.5782 S   0  0  0  0  0  0  0  0  0  0  0  0
    4.0486  -24.2484  -30.7889 O   0  0  0  0  0  0  0  0  0  0  0  0
    5.0048  -26.3181  -31.6112 O   0  0  0  0  0  0  0  0  0  0  0  0
    4.5288  -26.0485  -29.0018 N   0  0  0  0  0  0  0  0  0  0  0  0
    4.5651  -27.3826  -28.5272 C   0  0  0  0  0  0  0  0  0  0  0  0
    4.1435  -27.6428  -27.1389 C   0  0  0  0  0  0  0  0  0  0  0  0
    3.7840  -26.5300  -26.2548 C   0  0  0  0  0  0  0  0  0  0  0  0
    3.7191  -25.1529  -26.8299 C   0  0  0  0  0  0  0  0  0  0  0  0
    5.1079  -24.6471  -27.1497 C   0  0  0  0  0  0  0  0  0  0  0  0
    5.5634  -25.1977  -28.4822 C   0  0  0  0  0  0  0  0  0  0  0  0
  1  2  1  0
  2  3  2  0
  3  4  1  0
  4  5  2  0
  5  6  1  0
  6  7  1  0
  7  8  2  0
  7  9  1  0
  9 10  1  0
 10 11  1  0
 11 12  2  0
 11 13  1  0
 13 14  1  0
 14 15  1  0
 14 16  1  0
 14 17  1  0
 17 18  2  0
  5 19  1  0
 19 20  2  0
 20 21  1  0
 21 22  2  0
 21 23  2  0
 21 24  1  0
 24 25  1  0
 25 26  1  0
 26 27  1  0
 27 28  1  0
 28 29  1  0
 29 30  1  0
 20  2  1  0
 30 24  1  0
 17 10  1  0
M  END
>  <shape_align_shape_tanimoto>  (2) 
0.68449465765194384

>  <shape_align_color_tanimoto>  (2) 
0.12220160040185922

>  <metric>  (2) 
color

>  <metric_score>  (2) 
0.122

>  <template_pid>  (2) 
6S57

>  <template_shape_score>  (2) 
0.684

>  <template_color_score>  (2) 
0.122

>  <template_combo_score>  (2) 
0.403

$$$$
6S57_combo_pose
     RDKit          3D

 30 32  0  0  0  0  0  0  0  0999 V2000
    2.8253  -25.5942  -33.2407 C   0  0  0  0  0  0  0  0  0  0  0  0
    1.9519  -26.1459  -32.1649 C   0  0  0  0  0  0  0  0  0  0  0  0
    0.6664  -26.5267  -32.4499 C   0  0  0  0  0  0  0  0  0  0  0  0
   -0.1423  -27.0355  -31.4628 C   0  0  0  0  0  0  0  0  0  0  0  0
    0.3034  -27.1838  -30.1492 C   0  0  0  0  0  0  0  0  0  0  0  0
   -0.6112  -27.7132  -29.2254 N   0  0  0  0  0  0  0  0  0  0  0  0
   -0.3862  -27.9424  -27.8507 C   0  0  0  0  0  0  0  0  0  0  0  0
    0.6972  -27.6849  -27.2952 O   0  0  0  0  0  0  0  0  0  0  0  0
   -1.4677  -28.5168  -26.9914 C   0  0  0  0  0  0  0  0  0  0  0  0
   -1.0593  -28.6799  -25.6324 N   0  0  0  0  0  0  0  0  0  0  0  0
   -0.4462  -29.8793  -25.1344 C   0  0  0  0  0  0  0  0  0  0  0  0
   -0.1774  -30.9325  -25.7736 O   0  0  0  0  0  0  0  0  0  0  0  0
   -0.1641  -29.7162  -23.7427 N   0  0  0  0  0  0  0  0  0  0  0  0
   -0.2643  -28.3034  -23.4221 C   0  0  0  0  0  0  0  0  0  0  0  0
    1.1231  -27.7313  -23.5658 C   0  0  0  0  0  0  0  0  0  0  0  0
   -0.8359  -28.0839  -22.0455 C   0  0  0  0  0  0  0  0  0  0  0  0
   -1.1350  -27.8048  -24.5134 C   0  0  0  0  0  0  0  0  0  0  0  0
   -1.8651  -26.7617  -24.5161 O   0  0  0  0  0  0  0  0  0  0  0  0
    1.5903  -26.7940  -29.9009 C   0  0  0  0  0  0  0  0  0  0  0  0
    2.4254  -26.2830  -30.8585 C   0  0  0  0  0  0  0  0  0  0  0  0
    4.0614  -25.7598  -30.5782 S   0  0  0  0  0  0  0  0  0  0  0  0
    4.0486  -24.2484  -30.7889 O   0  0  0  0  0  0  0  0  0  0  0  0
    5.0048  -26.3181  -31.6112 O   0  0  0  0  0  0  0  0  0  0  0  0
    4.5288  -26.0485  -29.0018 N   0  0  0  0  0  0  0  0  0  0  0  0
    4.5651  -27.3826  -28.5272 C   0  0  0  0  0  0  0  0  0  0  0  0
    4.1435  -27.6428  -27.1389 C   0  0  0  0  0  0  0  0  0  0  0  0
    3.7840  -26.5300  -26.2548 C   0  0  0  0  0  0  0  0  0  0  0  0
    3.7191  -25.1529  -26.8299 C   0  0  0  0  0  0  0  0  0  0  0  0
    5.1079  -24.6471  -27.1497 C   0  0  0  0  0  0  0  0  0  0  0  0
    5.5634  -25.1977  -28.4822 C   0  0  0  0  0  0  0  0  0  0  0  0
  1  2  1  0
  2  3  2  0
  3  4  1  0
  4  5  2  0
  5  6  1  0
  6  7  1  0
  7  8  2  0
  7  9  1  0
  9 10  1  0
 10 11  1  0
 11 12  2  0
 11 13  1  0
 13 14  1  0
 14 15  1  0
 14 16  1  0
 14 17  1  0
 17 18  2  0
  5 19  1  0
 19 20  2  0
 20 21  1  0
 21 22  2  0
 21 23  2  0
 21 24  1  0
 24 25  1  0
 25 26  1  0
 26 27  1  0
 27 28  1  0
 28 29  1  0
 29 30  1  0
 20  2  1  0
 30 24  1  0
 17 10  1  0
M  END
>  <shape_align_shape_tanimoto>  (3) 
0.68449465765194384

>  <shape_align_color_tanimoto>  (3) 
0.12220160040185922

>  <metric>  (3) 
combo

>  <metric_score>  (3) 
0.403

>  <template_pid>  (3) 
6S57

>  <template_shape_score>  (3) 
0.684

>  <template_color_score>  (3) 
0.122

>  <template_combo_score>  (3) 
0.403

$$$$
