2Y3P_shape_pose
     RDKit          3D

 66 73  0  0  0  0  0  0  0  0999 V2000
   87.9392  -44.4306  -18.6373 C   0  0  0  0  0  0  0  0  0  0  0  0
   88.9651  -43.4970  -18.0739 C   0  0  0  0  0  0  0  0  0  0  0  0
   89.1159  -43.6056  -16.8151 O   0  0  0  0  0  0  0  0  0  0  0  0
   89.7097  -42.6013  -18.7652 O   0  0  0  0  0  0  0  0  0  0  0  0
   90.6451  -41.7715  -18.1111 C   0  0  2  0  0  0  0  0  0  0  0  0
   90.3427  -40.3282  -18.4282 C   0  0  1  0  0  0  0  0  0  0  0  0
   89.5735  -39.7567  -17.2228 C   0  0  0  0  0  0  0  0  0  0  0  0
   91.4956  -39.5369  -18.4963 O   0  0  0  0  0  0  0  0  0  0  0  0
   92.2386  -39.7997  -19.7053 C   0  0  1  0  0  0  0  0  0  0  0  0
   93.6027  -39.3881  -19.4207 C   0  0  0  0  0  0  0  0  0  0  0  0
   93.8762  -38.2982  -18.5712 C   0  0  0  0  0  0  0  0  0  0  0  0
   95.1816  -37.9069  -18.2673 C   0  0  0  0  0  0  0  0  0  0  0  0
   96.2631  -38.5748  -18.7989 C   0  0  0  0  0  0  0  0  0  0  0  0
   96.0363  -39.6446  -19.6462 C   0  0  0  0  0  0  0  0  0  0  0  0
   94.7382  -40.0341  -19.9454 C   0  0  0  0  0  0  0  0  0  0  0  0
   94.6483  -41.1104  -20.7964 O   0  0  0  0  0  0  0  0  0  0  0  0
   97.1754  -40.3075  -20.2361 C   0  0  2  0  0  0  0  0  0  0  0  0
   96.8778  -41.6180  -20.6826 O   0  0  0  0  0  0  0  0  0  0  0  0
   98.3624  -40.4396  -19.3121 C   0  0  2  0  0  0  0  0  0  0  0  0
   98.0675  -40.6801  -18.0049 O   0  0  0  0  0  0  0  0  0  0  0  0
   98.6261  -39.3646  -18.5028 C   0  0  2  0  0  0  0  0  0  0  0  0
   97.6607  -38.2511  -18.4397 C   0  0  0  0  0  0  0  0  0  0  0  0
   97.9019  -37.0831  -18.1274 O   0  0  0  0  0  0  0  0  0  0  0  0
   99.9227  -39.1555  -17.8015 C   0  0  1  0  0  0  0  0  0  0  0  0
  100.4203  -37.9116  -18.1658 O   0  0  0  0  0  0  0  0  0  0  0  0
   99.5512  -39.0526  -16.3288 C   0  0  0  0  0  0  0  0  0  0  0  0
   99.3931  -37.9579  -15.7511 O   0  0  0  0  0  0  0  0  0  0  0  0
   99.3897  -40.3472  -15.6255 C   0  0  0  0  0  0  0  0  0  0  0  0
  100.3731  -41.2028  -15.8155 C   0  0  0  0  0  0  0  0  0  0  0  0
  100.3397  -42.5321  -15.1868 C   0  0  0  0  0  0  0  0  0  0  0  0
  101.5076  -40.7106  -16.6745 C   0  0  0  0  0  0  0  0  0  0  0  0
  100.9307  -40.2123  -17.9987 C   0  0  2  0  0  0  0  0  0  0  0  0
  102.0638  -39.7331  -18.7103 O   0  0  0  0  0  0  0  0  0  0  0  0
  100.4711  -41.4452  -18.7345 C   0  0  0  0  0  0  0  0  0  0  0  0
   99.5930  -41.0512  -19.9231 C   0  0  2  0  0  0  0  0  0  0  0  0
  100.2791  -40.0169  -20.5615 O   0  0  0  0  0  0  0  0  0  0  0  0
   92.0120  -41.2258  -20.0474 C   0  0  0  0  0  0  0  0  0  0  0  0
   92.0073  -42.0578  -18.7019 C   0  0  1  0  0  0  0  0  0  0  0  0
   92.8887  -41.5941  -17.8281 O   0  0  0  0  0  0  0  0  0  0  0  0
   93.7912  -41.1941  -17.0107 C   0  0  0  0  0  0  0  0  0  0  0  0
   94.9688  -41.7392  -17.1839 O   0  0  0  0  0  0  0  0  0  0  0  0
   93.6062  -40.2126  -15.9659 C   0  0  0  0  0  0  0  0  0  0  0  0
   94.6455  -39.6959  -15.2483 C   0  0  0  0  0  0  0  0  0  0  0  0
   94.2701  -38.7610  -14.2493 C   0  0  0  0  0  0  0  0  0  0  0  0
   95.3098  -38.1641  -13.5902 C   0  0  0  0  0  0  0  0  0  0  0  0
   94.8685  -37.2388  -12.5820 C   0  0  0  0  0  0  0  0  0  0  0  0
   95.5696  -36.4521  -11.8601 C   0  0  0  0  0  0  0  0  0  0  0  0
   94.8811  -35.5884  -10.8901 C   0  0  0  0  0  0  0  0  0  0  0  0
   94.8846  -34.7247  -10.0568 C   0  0  0  0  0  0  0  0  0  0  0  0
   93.5351  -34.3125   -9.4648 C   0  0  0  0  0  0  0  0  0  0  0  0
   93.5725  -33.5239   -8.4349 O   0  0  0  0  0  0  0  0  0  0  0  0
   92.3685  -34.7776  -10.0425 N   0  0  0  0  0  0  0  0  0  0  0  0
   90.9887  -34.6974   -9.8527 C   0  0  0  0  0  0  0  0  0  0  0  0
   90.3383  -35.6906   -9.1629 C   0  0  0  0  0  0  0  0  0  0  0  0
   91.0688  -36.7008   -8.4842 O   0  0  0  0  0  0  0  0  0  0  0  0
   88.9576  -35.7578   -9.1023 C   0  0  0  0  0  0  0  0  0  0  0  0
   88.3017  -36.7588   -8.4340 C   0  0  0  0  0  0  0  0  0  0  0  0
   86.9385  -36.8528   -8.3693 C   0  0  0  0  0  0  0  0  0  0  0  0
   86.1652  -35.9057   -9.0079 C   0  0  0  0  0  0  0  0  0  0  0  0
   84.8140  -36.0333   -8.9324 O   0  0  0  0  0  0  0  0  0  0  0  0
   86.7986  -34.8604   -9.7042 C   0  0  0  0  0  0  0  0  0  0  0  0
   85.8613  -33.6097  -10.5147 Cl  0  0  0  0  0  0  0  0  0  0  0  0
   88.2024  -34.7868   -9.7523 C   0  0  0  0  0  0  0  0  0  0  0  0
   88.8461  -33.8529  -10.3962 O   0  0  0  0  0  0  0  0  0  0  0  0
   90.1404  -33.7598  -10.4735 C   0  0  0  0  0  0  0  0  0  0  0  0
   90.6910  -32.8169  -11.1178 O   0  0  0  0  0  0  0  0  0  0  0  0
  1  2  1  0
  2  3  2  0
  2  4  1  0
  5  4  1  6
  5  6  1  0
  6  7  1  1
  6  8  1  0
  8  9  1  0
  9 10  1  1
 10 11  2  0
 11 12  1  0
 12 13  2  0
 13 14  1  0
 14 15  2  0
 15 16  1  0
 14 17  1  0
 17 18  1  1
 17 19  1  0
 19 20  1  1
 21 20  1  1
 21 22  1  0
 22 23  2  0
 21 24  1  0
 24 25  1  6
 24 26  1  0
 26 27  2  0
 26 28  1  0
 28 29  2  0
 29 30  1  0
 29 31  1  0
 31 32  1  0
 32 33  1  6
 32 34  1  0
 34 35  1  0
 35 36  1  6
  9 37  1  0
 37 38  1  0
 38 39  1  1
 39 40  1  0
 40 41  2  0
 40 42  1  0
 42 43  2  0
 43 44  1  0
 44 45  2  0
 45 46  1  0
 46 47  2  0
 47 48  1  0
 48 49  2  0
 49 50  1  0
 50 51  2  0
 50 52  1  0
 52 53  1  0
 53 54  2  0
 54 55  1  0
 54 56  1  0
 56 57  2  0
 57 58  1  0
 58 59  2  0
 59 60  1  0
 59 61  1  0
 61 62  1  0
 61 63  2  0
 63 64  1  0
 64 65  1  0
 65 66  2  0
 38  5  1  0
 65 53  1  0
 15 10  1  0
 21 19  1  0
 32 24  1  0
 63 56  1  0
 22 13  1  0
 35 19  1  0
M  END
>  <shape_align_shape_tanimoto>  (1) 
0.27859578784006961

>  <shape_align_color_tanimoto>  (1) 
0.087460213954495519

>  <metric>  (1) 
shape

>  <metric_score>  (1) 
0.279

>  <template_pid>  (1) 
2Y3P

>  <template_shape_score>  (1) 
0.279

>  <template_color_score>  (1) 
0.087

>  <template_combo_score>  (1) 
0.183

$$$$
2Y3P_color_pose
     RDKit          3D

 66 73  0  0  0  0  0  0  0  0999 V2000
  104.0842  -43.1032  -12.0207 C   0  0  0  0  0  0  0  0  0  0  0  0
  103.7837  -44.1808  -12.9699 C   0  0  0  0  0  0  0  0  0  0  0  0
  104.1010  -45.3745  -12.6504 O   0  0  0  0  0  0  0  0  0  0  0  0
  103.1643  -43.8831  -14.1833 O   0  0  0  0  0  0  0  0  0  0  0  0
  102.8388  -44.9272  -15.1306 C   0  0  2  0  0  0  0  0  0  0  0  0
  103.7164  -44.7656  -16.3401 C   0  0  1  0  0  0  0  0  0  0  0  0
  104.3027  -46.0978  -16.7681 C   0  0  0  0  0  0  0  0  0  0  0  0
  103.1670  -44.2132  -17.4926 O   0  0  0  0  0  0  0  0  0  0  0  0
  101.9672  -43.6790  -17.2888 C   0  0  1  0  0  0  0  0  0  0  0  0
  101.1998  -42.8625  -18.2003 C   0  0  0  0  0  0  0  0  0  0  0  0
  100.5651  -43.3704  -19.3542 C   0  0  0  0  0  0  0  0  0  0  0  0
   99.6851  -42.5581  -20.0632 C   0  0  0  0  0  0  0  0  0  0  0  0
   99.4529  -41.2658  -19.6206 C   0  0  0  0  0  0  0  0  0  0  0  0
  100.0675  -40.7330  -18.5000 C   0  0  0  0  0  0  0  0  0  0  0  0
  100.9323  -41.5393  -17.8039 C   0  0  0  0  0  0  0  0  0  0  0  0
  101.5361  -40.9906  -16.6831 O   0  0  0  0  0  0  0  0  0  0  0  0
   99.8178  -39.3034  -18.1398 C   0  0  2  0  0  0  0  0  0  0  0  0
  100.2474  -39.0518  -16.8529 O   0  0  0  0  0  0  0  0  0  0  0  0
   98.3316  -38.9886  -18.2563 C   0  0  2  0  0  0  0  0  0  0  0  0
   97.5616  -40.0841  -17.8886 O   0  0  0  0  0  0  0  0  0  0  0  0
   97.6397  -39.5328  -19.2939 C   0  0  2  0  0  0  0  0  0  0  0  0
   98.4105  -40.4024  -20.2277 C   0  0  0  0  0  0  0  0  0  0  0  0
   98.2648  -40.4754  -21.4434 O   0  0  0  0  0  0  0  0  0  0  0  0
   96.3049  -38.9750  -19.6586 C   0  0  1  0  0  0  0  0  0  0  0  0
   96.4295  -38.0234  -20.6753 O   0  0  0  0  0  0  0  0  0  0  0  0
   95.4450  -40.0611  -20.2068 C   0  0  0  0  0  0  0  0  0  0  0  0
   95.6135  -40.4365  -21.4008 O   0  0  0  0  0  0  0  0  0  0  0  0
   94.4044  -40.7292  -19.4446 C   0  0  0  0  0  0  0  0  0  0  0  0
   94.1645  -40.3601  -18.1856 C   0  0  0  0  0  0  0  0  0  0  0  0
   93.0973  -41.0370  -17.3843 C   0  0  0  0  0  0  0  0  0  0  0  0
   94.9244  -39.2858  -17.5541 C   0  0  0  0  0  0  0  0  0  0  0  0
   95.6267  -38.3413  -18.4912 C   0  0  2  0  0  0  0  0  0  0  0  0
   94.5935  -37.5293  -19.0302 O   0  0  0  0  0  0  0  0  0  0  0  0
   96.4828  -37.4458  -17.6489 C   0  0  0  0  0  0  0  0  0  0  0  0
   97.9498  -37.6226  -17.8054 C   0  0  2  0  0  0  0  0  0  0  0  0
   98.4594  -36.6261  -18.6778 O   0  0  0  0  0  0  0  0  0  0  0  0
  101.0982  -44.9186  -16.8744 C   0  0  0  0  0  0  0  0  0  0  0  0
  101.4110  -44.8798  -15.3202 C   0  0  1  0  0  0  0  0  0  0  0  0
  100.5124  -45.8338  -14.8278 O   0  0  0  0  0  0  0  0  0  0  0  0
   99.1771  -45.4124  -14.5704 C   0  0  0  0  0  0  0  0  0  0  0  0
   98.9738  -44.2085  -14.8367 O   0  0  0  0  0  0  0  0  0  0  0  0
   98.1545  -46.3053  -14.0619 C   0  0  0  0  0  0  0  0  0  0  0  0
   96.9233  -45.7532  -13.9763 C   0  0  0  0  0  0  0  0  0  0  0  0
   95.7657  -46.4843  -13.4950 C   0  0  0  0  0  0  0  0  0  0  0  0
   94.6035  -45.7983  -13.5044 C   0  0  0  0  0  0  0  0  0  0  0  0
   93.3453  -46.4006  -13.0509 C   0  0  0  0  0  0  0  0  0  0  0  0
   92.2725  -45.6701  -13.1354 C   0  0  0  0  0  0  0  0  0  0  0  0
   90.9203  -46.0066  -12.7641 C   0  0  0  0  0  0  0  0  0  0  0  0
   89.9354  -45.1109  -12.9406 C   0  0  0  0  0  0  0  0  0  0  0  0
   88.5368  -45.4530  -12.5663 C   0  0  0  0  0  0  0  0  0  0  0  0
   88.2211  -46.5424  -12.0797 O   0  0  0  0  0  0  0  0  0  0  0  0
   87.5978  -44.3996  -12.8268 N   0  0  0  0  0  0  0  0  0  0  0  0
   86.2118  -44.4541  -12.5789 C   0  0  0  0  0  0  0  0  0  0  0  0
   85.3948  -44.9604  -13.5507 C   0  0  0  0  0  0  0  0  0  0  0  0
   85.8396  -45.4808  -14.7528 O   0  0  0  0  0  0  0  0  0  0  0  0
   84.0390  -44.9566  -13.3195 C   0  0  0  0  0  0  0  0  0  0  0  0
   83.1287  -45.4567  -14.2722 C   0  0  0  0  0  0  0  0  0  0  0  0
   81.7747  -45.4553  -14.0545 C   0  0  0  0  0  0  0  0  0  0  0  0
   81.3342  -44.9436  -12.8605 C   0  0  0  0  0  0  0  0  0  0  0  0
   79.9405  -44.9255  -12.6026 O   0  0  0  0  0  0  0  0  0  0  0  0
   82.1377  -44.4394  -11.8815 C   0  0  0  0  0  0  0  0  0  0  0  0
   81.5296  -43.7952  -10.3684 Cl  0  0  0  0  0  0  0  0  0  0  0  0
   83.5176  -44.4379  -12.0986 C   0  0  0  0  0  0  0  0  0  0  0  0
   84.3793  -43.9797  -11.2334 O   0  0  0  0  0  0  0  0  0  0  0  0
   85.6779  -43.9626  -11.4099 C   0  0  0  0  0  0  0  0  0  0  0  0
   86.3681  -43.4866  -10.4753 O   0  0  0  0  0  0  0  0  0  0  0  0
  1  2  1  0
  2  3  2  0
  2  4  1  0
  5  4  1  1
  5  6  1  0
  6  7  1  6
  6  8  1  0
  8  9  1  0
  9 10  1  6
 10 11  2  0
 11 12  1  0
 12 13  2  0
 13 14  1  0
 14 15  2  0
 15 16  1  0
 14 17  1  0
 17 18  1  1
 17 19  1  0
 19 20  1  1
 21 20  1  1
 21 22  1  0
 22 23  2  0
 21 24  1  0
 24 25  1  6
 24 26  1  0
 26 27  2  0
 26 28  1  0
 28 29  2  0
 29 30  1  0
 29 31  1  0
 31 32  1  0
 32 33  1  6
 32 34  1  0
 34 35  1  0
 35 36  1  6
  9 37  1  0
 37 38  1  0
 38 39  1  1
 39 40  1  0
 40 41  2  0
 40 42  1  0
 42 43  2  0
 43 44  1  0
 44 45  2  0
 45 46  1  0
 46 47  2  0
 47 48  1  0
 48 49  2  0
 49 50  1  0
 50 51  2  0
 50 52  1  0
 52 53  1  0
 53 54  2  0
 54 55  1  0
 54 56  1  0
 56 57  2  0
 57 58  1  0
 58 59  2  0
 59 60  1  0
 59 61  1  0
 61 62  1  0
 61 63  2  0
 63 64  1  0
 64 65  1  0
 65 66  2  0
 38  5  1  0
 65 53  1  0
 15 10  1  0
 21 19  1  0
 32 24  1  0
 63 56  1  0
 22 13  1  0
 35 19  1  0
M  END
>  <shape_align_shape_tanimoto>  (2) 
0.24310796565611159

>  <shape_align_color_tanimoto>  (2) 
0.09819197389516425

>  <metric>  (2) 
color

>  <metric_score>  (2) 
0.098

>  <template_pid>  (2) 
2Y3P

>  <template_shape_score>  (2) 
0.243

>  <template_color_score>  (2) 
0.098

>  <template_combo_score>  (2) 
0.171

$$$$
2Y3P_combo_pose
     RDKit          3D

 66 73  0  0  0  0  0  0  0  0999 V2000
   87.9392  -44.4306  -18.6373 C   0  0  0  0  0  0  0  0  0  0  0  0
   88.9651  -43.4970  -18.0739 C   0  0  0  0  0  0  0  0  0  0  0  0
   89.1159  -43.6056  -16.8151 O   0  0  0  0  0  0  0  0  0  0  0  0
   89.7097  -42.6013  -18.7652 O   0  0  0  0  0  0  0  0  0  0  0  0
   90.6451  -41.7715  -18.1111 C   0  0  2  0  0  0  0  0  0  0  0  0
   90.3427  -40.3282  -18.4282 C   0  0  1  0  0  0  0  0  0  0  0  0
   89.5735  -39.7567  -17.2228 C   0  0  0  0  0  0  0  0  0  0  0  0
   91.4956  -39.5369  -18.4963 O   0  0  0  0  0  0  0  0  0  0  0  0
   92.2386  -39.7997  -19.7053 C   0  0  1  0  0  0  0  0  0  0  0  0
   93.6027  -39.3881  -19.4207 C   0  0  0  0  0  0  0  0  0  0  0  0
   93.8762  -38.2982  -18.5712 C   0  0  0  0  0  0  0  0  0  0  0  0
   95.1816  -37.9069  -18.2673 C   0  0  0  0  0  0  0  0  0  0  0  0
   96.2631  -38.5748  -18.7989 C   0  0  0  0  0  0  0  0  0  0  0  0
   96.0363  -39.6446  -19.6462 C   0  0  0  0  0  0  0  0  0  0  0  0
   94.7382  -40.0341  -19.9454 C   0  0  0  0  0  0  0  0  0  0  0  0
   94.6483  -41.1104  -20.7964 O   0  0  0  0  0  0  0  0  0  0  0  0
   97.1754  -40.3075  -20.2361 C   0  0  2  0  0  0  0  0  0  0  0  0
   96.8778  -41.6180  -20.6826 O   0  0  0  0  0  0  0  0  0  0  0  0
   98.3624  -40.4396  -19.3121 C   0  0  2  0  0  0  0  0  0  0  0  0
   98.0675  -40.6801  -18.0049 O   0  0  0  0  0  0  0  0  0  0  0  0
   98.6261  -39.3646  -18.5028 C   0  0  2  0  0  0  0  0  0  0  0  0
   97.6607  -38.2511  -18.4397 C   0  0  0  0  0  0  0  0  0  0  0  0
   97.9019  -37.0831  -18.1274 O   0  0  0  0  0  0  0  0  0  0  0  0
   99.9227  -39.1555  -17.8015 C   0  0  1  0  0  0  0  0  0  0  0  0
  100.4203  -37.9116  -18.1658 O   0  0  0  0  0  0  0  0  0  0  0  0
   99.5512  -39.0526  -16.3288 C   0  0  0  0  0  0  0  0  0  0  0  0
   99.3931  -37.9579  -15.7511 O   0  0  0  0  0  0  0  0  0  0  0  0
   99.3897  -40.3472  -15.6255 C   0  0  0  0  0  0  0  0  0  0  0  0
  100.3731  -41.2028  -15.8155 C   0  0  0  0  0  0  0  0  0  0  0  0
  100.3397  -42.5321  -15.1868 C   0  0  0  0  0  0  0  0  0  0  0  0
  101.5076  -40.7106  -16.6745 C   0  0  0  0  0  0  0  0  0  0  0  0
  100.9307  -40.2123  -17.9987 C   0  0  2  0  0  0  0  0  0  0  0  0
  102.0638  -39.7331  -18.7103 O   0  0  0  0  0  0  0  0  0  0  0  0
  100.4711  -41.4452  -18.7345 C   0  0  0  0  0  0  0  0  0  0  0  0
   99.5930  -41.0512  -19.9231 C   0  0  2  0  0  0  0  0  0  0  0  0
  100.2791  -40.0169  -20.5615 O   0  0  0  0  0  0  0  0  0  0  0  0
   92.0120  -41.2258  -20.0474 C   0  0  0  0  0  0  0  0  0  0  0  0
   92.0073  -42.0578  -18.7019 C   0  0  1  0  0  0  0  0  0  0  0  0
   92.8887  -41.5941  -17.8281 O   0  0  0  0  0  0  0  0  0  0  0  0
   93.7912  -41.1941  -17.0107 C   0  0  0  0  0  0  0  0  0  0  0  0
   94.9688  -41.7392  -17.1839 O   0  0  0  0  0  0  0  0  0  0  0  0
   93.6062  -40.2126  -15.9659 C   0  0  0  0  0  0  0  0  0  0  0  0
   94.6455  -39.6959  -15.2483 C   0  0  0  0  0  0  0  0  0  0  0  0
   94.2701  -38.7610  -14.2493 C   0  0  0  0  0  0  0  0  0  0  0  0
   95.3098  -38.1641  -13.5902 C   0  0  0  0  0  0  0  0  0  0  0  0
   94.8685  -37.2388  -12.5820 C   0  0  0  0  0  0  0  0  0  0  0  0
   95.5696  -36.4521  -11.8601 C   0  0  0  0  0  0  0  0  0  0  0  0
   94.8811  -35.5884  -10.8901 C   0  0  0  0  0  0  0  0  0  0  0  0
   94.8846  -34.7247  -10.0568 C   0  0  0  0  0  0  0  0  0  0  0  0
   93.5351  -34.3125   -9.4648 C   0  0  0  0  0  0  0  0  0  0  0  0
   93.5725  -33.5239   -8.4349 O   0  0  0  0  0  0  0  0  0  0  0  0
   92.3685  -34.7776  -10.0425 N   0  0  0  0  0  0  0  0  0  0  0  0
   90.9887  -34.6974   -9.8527 C   0  0  0  0  0  0  0  0  0  0  0  0
   90.3383  -35.6906   -9.1629 C   0  0  0  0  0  0  0  0  0  0  0  0
   91.0688  -36.7008   -8.4842 O   0  0  0  0  0  0  0  0  0  0  0  0
   88.9576  -35.7578   -9.1023 C   0  0  0  0  0  0  0  0  0  0  0  0
   88.3017  -36.7588   -8.4340 C   0  0  0  0  0  0  0  0  0  0  0  0
   86.9385  -36.8528   -8.3693 C   0  0  0  0  0  0  0  0  0  0  0  0
   86.1652  -35.9057   -9.0079 C   0  0  0  0  0  0  0  0  0  0  0  0
   84.8140  -36.0333   -8.9324 O   0  0  0  0  0  0  0  0  0  0  0  0
   86.7986  -34.8604   -9.7042 C   0  0  0  0  0  0  0  0  0  0  0  0
   85.8613  -33.6097  -10.5147 Cl  0  0  0  0  0  0  0  0  0  0  0  0
   88.2024  -34.7868   -9.7523 C   0  0  0  0  0  0  0  0  0  0  0  0
   88.8461  -33.8529  -10.3962 O   0  0  0  0  0  0  0  0  0  0  0  0
   90.1404  -33.7598  -10.4735 C   0  0  0  0  0  0  0  0  0  0  0  0
   90.6910  -32.8169  -11.1178 O   0  0  0  0  0  0  0  0  0  0  0  0
  1  2  1  0
  2  3  2  0
  2  4  1  0
  5  4  1  6
  5  6  1  0
  6  7  1  1
  6  8  1  0
  8  9  1  0
  9 10  1  1
 10 11  2  0
 11 12  1  0
 12 13  2  0
 13 14  1  0
 14 15  2  0
 15 16  1  0
 14 17  1  0
 17 18  1  1
 17 19  1  0
 19 20  1  1
 21 20  1  1
 21 22  1  0
 22 23  2  0
 21 24  1  0
 24 25  1  6
 24 26  1  0
 26 27  2  0
 26 28  1  0
 28 29  2  0
 29 30  1  0
 29 31  1  0
 31 32  1  0
 32 33  1  6
 32 34  1  0
 34 35  1  0
 35 36  1  6
  9 37  1  0
 37 38  1  0
 38 39  1  1
 39 40  1  0
 40 41  2  0
 40 42  1  0
 42 43  2  0
 43 44  1  0
 44 45  2  0
 45 46  1  0
 46 47  2  0
 47 48  1  0
 48 49  2  0
 49 50  1  0
 50 51  2  0
 50 52  1  0
 52 53  1  0
 53 54  2  0
 54 55  1  0
 54 56  1  0
 56 57  2  0
 57 58  1  0
 58 59  2  0
 59 60  1  0
 59 61  1  0
 61 62  1  0
 61 63  2  0
 63 64  1  0
 64 65  1  0
 65 66  2  0
 38  5  1  0
 65 53  1  0
 15 10  1  0
 21 19  1  0
 32 24  1  0
 63 56  1  0
 22 13  1  0
 35 19  1  0
M  END
>  <shape_align_shape_tanimoto>  (3) 
0.27859578784006961

>  <shape_align_color_tanimoto>  (3) 
0.087460213954495519

>  <metric>  (3) 
combo

>  <metric_score>  (3) 
0.183

>  <template_pid>  (3) 
2Y3P

>  <template_shape_score>  (3) 
0.279

>  <template_color_score>  (3) 
0.087

>  <template_combo_score>  (3) 
0.183

$$$$
