4AWJ_shape_pose
     RDKit          3D

 13 13  0  0  0  0  0  0  0  0999 V2000
   11.1579   52.2191   86.5947 C   0  0  0  0  0  0  0  0  0  0  0  0
   11.6891   53.3399   87.3397 N   0  0  0  0  0  0  0  0  0  0  0  0
   12.1431   53.1361   88.6787 C   0  0  0  0  0  0  0  0  0  0  0  0
   12.0883   51.9952   89.2212 O   0  0  0  0  0  0  0  0  0  0  0  0
   12.6770   54.3356   89.3834 C   0  0  2  0  0  0  0  0  0  0  0  0
   13.9176   54.8014   88.6598 C   0  0  0  0  0  0  0  0  0  0  0  0
   14.7178   55.4449   89.7707 C   0  0  1  0  0  0  0  0  0  0  0  0
   14.3120   56.7427   89.9870 O   0  0  0  0  0  0  0  0  0  0  0  0
   14.4652   54.5071   90.9161 C   0  0  0  0  0  0  0  0  0  0  0  0
   13.1095   54.0383   90.7218 N   0  0  0  0  0  0  0  0  0  0  0  0
   12.3394   53.3851   91.7163 C   0  0  0  0  0  0  0  0  0  0  0  0
   12.8753   53.1211   93.0769 C   0  0  0  0  0  0  0  0  0  0  0  0
   11.1471   52.9999   91.4679 O   0  0  0  0  0  0  0  0  0  0  0  0
  1  2  1  0
  2  3  1  0
  3  4  2  0
  5  3  1  6
  5  6  1  0
  6  7  1  0
  7  8  1  1
  7  9  1  0
  9 10  1  0
 10 11  1  0
 11 12  1  0
 11 13  2  0
 10  5  1  0
M  END
>  <shape_align_shape_tanimoto>  (1) 
0.40417314773602103

>  <shape_align_color_tanimoto>  (1) 
0.37624784886730234

>  <metric>  (1) 
shape

>  <metric_score>  (1) 
0.404

>  <template_pid>  (1) 
4AWJ

>  <template_shape_score>  (1) 
0.404

>  <template_color_score>  (1) 
0.376

>  <template_combo_score>  (1) 
0.390

$$$$
4AWJ_color_pose
     RDKit          3D

 13 13  0  0  0  0  0  0  0  0999 V2000
   11.1579   52.2191   86.5947 C   0  0  0  0  0  0  0  0  0  0  0  0
   11.6891   53.3399   87.3397 N   0  0  0  0  0  0  0  0  0  0  0  0
   12.1431   53.1361   88.6787 C   0  0  0  0  0  0  0  0  0  0  0  0
   12.0883   51.9952   89.2212 O   0  0  0  0  0  0  0  0  0  0  0  0
   12.6770   54.3356   89.3834 C   0  0  2  0  0  0  0  0  0  0  0  0
   13.9176   54.8014   88.6598 C   0  0  0  0  0  0  0  0  0  0  0  0
   14.7178   55.4449   89.7707 C   0  0  1  0  0  0  0  0  0  0  0  0
   14.3120   56.7427   89.9870 O   0  0  0  0  0  0  0  0  0  0  0  0
   14.4652   54.5071   90.9161 C   0  0  0  0  0  0  0  0  0  0  0  0
   13.1095   54.0383   90.7218 N   0  0  0  0  0  0  0  0  0  0  0  0
   12.3394   53.3851   91.7163 C   0  0  0  0  0  0  0  0  0  0  0  0
   12.8753   53.1211   93.0769 C   0  0  0  0  0  0  0  0  0  0  0  0
   11.1471   52.9999   91.4679 O   0  0  0  0  0  0  0  0  0  0  0  0
  1  2  1  0
  2  3  1  0
  3  4  2  0
  5  3  1  6
  5  6  1  0
  6  7  1  0
  7  8  1  1
  7  9  1  0
  9 10  1  0
 10 11  1  0
 11 12  1  0
 11 13  2  0
 10  5  1  0
M  END
>  <shape_align_shape_tanimoto>  (2) 
0.40417314773602103

>  <shape_align_color_tanimoto>  (2) 
0.37624784886730234

>  <metric>  (2) 
color

>  <metric_score>  (2) 
0.376

>  <template_pid>  (2) 
4AWJ

>  <template_shape_score>  (2) 
0.404

>  <template_color_score>  (2) 
0.376

>  <template_combo_score>  (2) 
0.390

$$$$
4AWJ_combo_pose
     RDKit          3D

 13 13  0  0  0  0  0  0  0  0999 V2000
   11.1579   52.2191   86.5947 C   0  0  0  0  0  0  0  0  0  0  0  0
   11.6891   53.3399   87.3397 N   0  0  0  0  0  0  0  0  0  0  0  0
   12.1431   53.1361   88.6787 C   0  0  0  0  0  0  0  0  0  0  0  0
   12.0883   51.9952   89.2212 O   0  0  0  0  0  0  0  0  0  0  0  0
   12.6770   54.3356   89.3834 C   0  0  2  0  0  0  0  0  0  0  0  0
   13.9176   54.8014   88.6598 C   0  0  0  0  0  0  0  0  0  0  0  0
   14.7178   55.4449   89.7707 C   0  0  1  0  0  0  0  0  0  0  0  0
   14.3120   56.7427   89.9870 O   0  0  0  0  0  0  0  0  0  0  0  0
   14.4652   54.5071   90.9161 C   0  0  0  0  0  0  0  0  0  0  0  0
   13.1095   54.0383   90.7218 N   0  0  0  0  0  0  0  0  0  0  0  0
   12.3394   53.3851   91.7163 C   0  0  0  0  0  0  0  0  0  0  0  0
   12.8753   53.1211   93.0769 C   0  0  0  0  0  0  0  0  0  0  0  0
   11.1471   52.9999   91.4679 O   0  0  0  0  0  0  0  0  0  0  0  0
  1  2  1  0
  2  3  1  0
  3  4  2  0
  5  3  1  6
  5  6  1  0
  6  7  1  0
  7  8  1  1
  7  9  1  0
  9 10  1  0
 10 11  1  0
 11 12  1  0
 11 13  2  0
 10  5  1  0
M  END
>  <shape_align_shape_tanimoto>  (3) 
0.40417314773602103

>  <shape_align_color_tanimoto>  (3) 
0.37624784886730234

>  <metric>  (3) 
combo

>  <metric_score>  (3) 
0.390

>  <template_pid>  (3) 
4AWJ

>  <template_shape_score>  (3) 
0.404

>  <template_color_score>  (3) 
0.376

>  <template_combo_score>  (3) 
0.390

$$$$
