3KID_shape_pose
     RDKit          3D

 15 16  0  0  0  0  0  0  0  0999 V2000
  -20.3488  -36.5256   17.0566 C   0  0  0  0  0  0  0  0  0  0  0  0
  -20.0352  -35.0955   16.7147 C   0  0  0  0  0  0  0  0  0  0  0  0
  -20.2307  -34.2439   17.8266 O   0  0  0  0  0  0  0  0  0  0  0  0
  -21.4621  -34.1134   18.4532 C   0  0  0  0  0  0  0  0  0  0  0  0
  -22.4832  -34.7436   18.0731 O   0  0  0  0  0  0  0  0  0  0  0  0
  -21.5350  -33.2061   19.5864 C   0  0  0  0  0  0  0  0  0  0  0  0
  -20.4668  -32.4821   20.0630 C   0  0  0  0  0  0  0  0  0  0  0  0
  -20.5047  -31.6261   21.1204 C   0  0  0  0  0  0  0  0  0  0  0  0
  -21.6946  -31.4393   21.7999 C   0  0  0  0  0  0  0  0  0  0  0  0
  -21.9866  -30.6792   22.8370 N   0  0  0  0  0  0  0  0  0  0  0  0
  -22.9544  -30.5070   23.4145 C   0  0  0  0  0  0  0  0  0  0  0  0
  -23.5710  -29.7909   24.5212 N   0  0  0  0  0  0  0  0  0  0  0  0
  -24.1248  -31.6765   22.4339 S   0  0  0  0  0  0  0  0  0  0  0  0
  -22.7792  -32.1621   21.3312 C   0  0  0  0  0  0  0  0  0  0  0  0
  -22.7399  -33.0234   20.2667 C   0  0  0  0  0  0  0  0  0  0  0  0
  1  2  1  0
  2  3  1  0
  3  4  1  0
  4  5  2  0
  4  6  1  0
  6  7  2  0
  7  8  1  0
  8  9  2  0
  9 10  1  0
 10 11  2  0
 11 12  1  0
 11 13  1  0
 13 14  1  0
 14 15  2  0
 15  6  1  0
 14  9  1  0
M  END
>  <shape_align_shape_tanimoto>  (1) 
0.39736078187764595

>  <shape_align_color_tanimoto>  (1) 
0.069116835899641335

>  <metric>  (1) 
shape

>  <metric_score>  (1) 
0.397

>  <template_pid>  (1) 
3KID

>  <template_shape_score>  (1) 
0.397

>  <template_color_score>  (1) 
0.069

>  <template_combo_score>  (1) 
0.233

$$$$
3KID_color_pose
     RDKit          3D

 15 16  0  0  0  0  0  0  0  0999 V2000
  -20.3802  -36.6698   16.5933 C   0  0  0  0  0  0  0  0  0  0  0  0
  -21.2393  -35.4758   16.3312 C   0  0  0  0  0  0  0  0  0  0  0  0
  -21.4686  -34.6992   17.4933 O   0  0  0  0  0  0  0  0  0  0  0  0
  -20.4621  -34.0995   18.2368 C   0  0  0  0  0  0  0  0  0  0  0  0
  -19.2722  -34.2052   17.9279 O   0  0  0  0  0  0  0  0  0  0  0  0
  -20.8168  -33.3212   19.4178 C   0  0  0  0  0  0  0  0  0  0  0  0
  -19.8888  -32.6919   20.2146 C   0  0  0  0  0  0  0  0  0  0  0  0
  -20.1811  -31.9530   21.3300 C   0  0  0  0  0  0  0  0  0  0  0  0
  -21.5219  -31.8108   21.7120 C   0  0  0  0  0  0  0  0  0  0  0  0
  -22.0295  -31.1604   22.7266 N   0  0  0  0  0  0  0  0  0  0  0  0
  -23.1282  -31.0174   23.0783 C   0  0  0  0  0  0  0  0  0  0  0  0
  -23.9789  -30.4145   24.0682 N   0  0  0  0  0  0  0  0  0  0  0  0
  -24.0132  -32.0385   21.7045 S   0  0  0  0  0  0  0  0  0  0  0  0
  -22.4377  -32.4392   20.9151 C   0  0  0  0  0  0  0  0  0  0  0  0
  -22.1457  -33.1835   19.7916 C   0  0  0  0  0  0  0  0  0  0  0  0
  1  2  1  0
  2  3  1  0
  3  4  1  0
  4  5  2  0
  4  6  1  0
  6  7  2  0
  7  8  1  0
  8  9  2  0
  9 10  1  0
 10 11  2  0
 11 12  1  0
 11 13  1  0
 13 14  1  0
 14 15  2  0
 15  6  1  0
 14  9  1  0
M  END
>  <shape_align_shape_tanimoto>  (2) 
0.37746912551380496

>  <shape_align_color_tanimoto>  (2) 
0.14799931448806236

>  <metric>  (2) 
color

>  <metric_score>  (2) 
0.148

>  <template_pid>  (2) 
3KID

>  <template_shape_score>  (2) 
0.377

>  <template_color_score>  (2) 
0.148

>  <template_combo_score>  (2) 
0.263

$$$$
3KID_combo_pose
     RDKit          3D

 15 16  0  0  0  0  0  0  0  0999 V2000
  -20.3305  -36.5360   16.8484 C   0  0  0  0  0  0  0  0  0  0  0  0
  -21.3517  -35.5018   16.4285 C   0  0  0  0  0  0  0  0  0  0  0  0
  -21.6290  -34.7135   17.5933 O   0  0  0  0  0  0  0  0  0  0  0  0
  -20.6158  -34.0052   18.2221 C   0  0  0  0  0  0  0  0  0  0  0  0
  -19.4197  -34.0031   17.8288 O   0  0  0  0  0  0  0  0  0  0  0  0
  -20.9348  -33.2156   19.4025 C   0  0  0  0  0  0  0  0  0  0  0  0
  -20.0043  -32.4767   20.1002 C   0  0  0  0  0  0  0  0  0  0  0  0
  -20.2910  -31.7266   21.2163 C   0  0  0  0  0  0  0  0  0  0  0  0
  -21.5797  -31.6794   21.7073 C   0  0  0  0  0  0  0  0  0  0  0  0
  -22.0880  -31.0496   22.7329 N   0  0  0  0  0  0  0  0  0  0  0  0
  -23.1495  -30.9905   23.1648 C   0  0  0  0  0  0  0  0  0  0  0  0
  -23.9772  -30.4257   24.2077 N   0  0  0  0  0  0  0  0  0  0  0  0
  -24.0526  -32.1352   21.9055 S   0  0  0  0  0  0  0  0  0  0  0  0
  -22.5353  -32.4301   21.0017 C   0  0  0  0  0  0  0  0  0  0  0  0
  -22.2361  -33.1712   19.8938 C   0  0  0  0  0  0  0  0  0  0  0  0
  1  2  1  0
  2  3  1  0
  3  4  1  0
  4  5  2  0
  4  6  1  0
  6  7  2  0
  7  8  1  0
  8  9  2  0
  9 10  1  0
 10 11  2  0
 11 12  1  0
 11 13  1  0
 13 14  1  0
 14 15  2  0
 15  6  1  0
 14  9  1  0
M  END
>  <shape_align_shape_tanimoto>  (3) 
0.38274076400049367

>  <shape_align_color_tanimoto>  (3) 
0.14611264069950797

>  <metric>  (3) 
combo

>  <metric_score>  (3) 
0.264

>  <template_pid>  (3) 
3KID

>  <template_shape_score>  (3) 
0.383

>  <template_color_score>  (3) 
0.146

>  <template_combo_score>  (3) 
0.264

$$$$
