2JDS_shape_pose
     RDKit          3D

 30 34  0  0  0  0  0  0  0  0999 V2000
  -12.4982   59.7409  -10.0657 C   0  0  0  0  0  0  0  0  0  0  0  0
  -13.9780   59.7343   -9.9139 C   0  0  0  0  0  0  0  0  0  0  0  0
  -14.8475   60.1885  -10.8105 N   0  0  0  0  0  0  0  0  0  0  0  0
  -16.0704   60.0245  -10.3447 N   0  0  0  0  0  0  0  0  0  0  0  0
  -16.0064   59.4579   -9.1316 C   0  0  0  0  0  0  0  0  0  0  0  0
  -16.9871   59.0852   -8.2378 C   0  0  0  0  0  0  0  0  0  0  0  0
  -16.5888   58.5169   -7.0507 C   0  0  0  0  0  0  0  0  0  0  0  0
  -15.2571   58.3079   -6.7240 C   0  0  0  0  0  0  0  0  0  0  0  0
  -14.9814   57.6977   -5.4276 C   0  0  0  0  0  0  0  0  0  0  0  0
  -15.8287   57.9576   -4.4013 C   0  0  0  0  0  0  0  0  0  0  0  0
  -15.6028   57.4118   -3.1950 N   0  0  0  0  0  0  0  0  0  0  0  0
  -14.5583   56.6083   -2.9577 C   0  0  0  0  0  0  0  0  0  0  0  0
  -13.6284   56.2894   -3.9771 C   0  0  0  0  0  0  0  0  0  0  0  0
  -12.6276   55.4829   -3.6406 O   0  0  0  0  0  0  0  0  0  0  0  0
  -11.5219   54.8622   -4.0580 C   0  0  0  0  0  0  0  0  0  0  0  0
  -10.3352   55.6302   -4.5255 C   0  0  1  0  0  0  0  0  0  0  0  0
  -10.5761   56.4578   -5.6565 N   0  0  0  0  0  0  0  0  0  0  0  0
   -9.6882   56.3908   -3.3785 C   0  0  0  0  0  0  0  0  0  0  0  0
   -9.2438   55.4498   -2.3199 C   0  0  0  0  0  0  0  0  0  0  0  0
   -9.8560   55.2099   -1.1040 C   0  0  0  0  0  0  0  0  0  0  0  0
   -9.1622   54.2872   -0.4018 N   0  0  0  0  0  0  0  0  0  0  0  0
   -8.0916   53.9228   -1.1632 C   0  0  0  0  0  0  0  0  0  0  0  0
   -7.0809   53.0005   -0.8740 C   0  0  0  0  0  0  0  0  0  0  0  0
   -6.0982   52.8157   -1.8325 C   0  0  0  0  0  0  0  0  0  0  0  0
   -6.0918   53.4984   -3.0297 C   0  0  0  0  0  0  0  0  0  0  0  0
   -7.1210   54.4111   -3.2783 C   0  0  0  0  0  0  0  0  0  0  0  0
   -8.1262   54.6227   -2.3370 C   0  0  0  0  0  0  0  0  0  0  0  0
  -13.9025   56.8710   -5.1939 C   0  0  0  0  0  0  0  0  0  0  0  0
  -14.2849   58.6800   -7.6161 C   0  0  0  0  0  0  0  0  0  0  0  0
  -14.6785   59.2578   -8.8241 C   0  0  0  0  0  0  0  0  0  0  0  0
  1  2  1  0
  2  3  2  0
  3  4  1  0
  4  5  1  0
  5  6  2  0
  6  7  1  0
  7  8  2  0
  8  9  1  0
  9 10  2  0
 10 11  1  0
 11 12  2  0
 12 13  1  0
 13 14  1  0
 14 15  1  0
 15 16  1  0
 16 17  1  6
 16 18  1  0
 18 19  1  0
 19 20  2  0
 20 21  1  0
 21 22  1  0
 22 23  2  0
 23 24  1  0
 24 25  2  0
 25 26  1  0
 26 27  2  0
 13 28  2  0
  8 29  1  0
 29 30  2  0
 30  2  1  0
 30  5  1  0
 28  9  1  0
 27 19  1  0
 27 22  1  0
M  CHG  1  17   1
M  END
>  <shape_align_shape_tanimoto>  (1) 
0.31231849189066285

>  <shape_align_color_tanimoto>  (1) 
0.015999013496053031

>  <metric>  (1) 
shape

>  <metric_score>  (1) 
0.312

>  <template_pid>  (1) 
2JDS

>  <template_shape_score>  (1) 
0.312

>  <template_color_score>  (1) 
0.016

>  <template_combo_score>  (1) 
0.164

$$$$
2JDS_color_pose
     RDKit          3D

 30 34  0  0  0  0  0  0  0  0999 V2000
  -13.9923   53.8120    2.3998 C   0  0  0  0  0  0  0  0  0  0  0  0
  -13.0318   54.8145    2.9270 C   0  0  0  0  0  0  0  0  0  0  0  0
  -13.1468   55.5164    4.0766 N   0  0  0  0  0  0  0  0  0  0  0  0
  -12.1057   56.3209    4.2308 N   0  0  0  0  0  0  0  0  0  0  0  0
  -11.2754   56.1690    3.1833 C   0  0  0  0  0  0  0  0  0  0  0  0
  -10.0705   56.7681    2.8715 C   0  0  0  0  0  0  0  0  0  0  0  0
   -9.4069   56.4286    1.7118 C   0  0  0  0  0  0  0  0  0  0  0  0
   -9.9826   55.4805    0.8836 C   0  0  0  0  0  0  0  0  0  0  0  0
   -9.3064   55.0876   -0.3719 C   0  0  0  0  0  0  0  0  0  0  0  0
   -7.9345   55.0825   -0.4819 C   0  0  0  0  0  0  0  0  0  0  0  0
   -7.3827   54.7166   -1.6545 N   0  0  0  0  0  0  0  0  0  0  0  0
   -8.1178   54.3577   -2.7172 C   0  0  0  0  0  0  0  0  0  0  0  0
   -9.5238   54.3407   -2.6739 C   0  0  0  0  0  0  0  0  0  0  0  0
  -10.1666   53.9667   -3.7843 O   0  0  0  0  0  0  0  0  0  0  0  0
  -11.4494   53.8170   -4.2044 C   0  0  0  0  0  0  0  0  0  0  0  0
  -12.2302   55.1156   -4.2043 C   0  0  1  0  0  0  0  0  0  0  0  0
  -11.5615   56.0368   -5.0950 N   0  0  0  0  0  0  0  0  0  0  0  0
  -13.6736   54.9028   -4.5170 C   0  0  0  0  0  0  0  0  0  0  0  0
  -14.4318   56.1616   -4.5137 C   0  0  0  0  0  0  0  0  0  0  0  0
  -15.1663   56.5920   -3.4021 C   0  0  0  0  0  0  0  0  0  0  0  0
  -15.7332   57.7824   -3.6682 N   0  0  0  0  0  0  0  0  0  0  0  0
  -15.3938   58.1447   -4.9189 C   0  0  0  0  0  0  0  0  0  0  0  0
  -15.7522   59.2806   -5.6152 C   0  0  0  0  0  0  0  0  0  0  0  0
  -15.2850   59.4288   -6.9054 C   0  0  0  0  0  0  0  0  0  0  0  0
  -14.4796   58.4257   -7.4329 C   0  0  0  0  0  0  0  0  0  0  0  0
  -14.1331   57.2980   -6.7194 C   0  0  0  0  0  0  0  0  0  0  0  0
  -14.5938   57.1521   -5.4446 C   0  0  0  0  0  0  0  0  0  0  0  0
  -10.0683   54.7179   -1.4651 C   0  0  0  0  0  0  0  0  0  0  0  0
  -11.1878   54.8807    1.1949 C   0  0  0  0  0  0  0  0  0  0  0  0
  -11.8510   55.2184    2.3518 C   0  0  0  0  0  0  0  0  0  0  0  0
  1  2  1  0
  2  3  2  0
  3  4  1  0
  4  5  1  0
  5  6  2  0
  6  7  1  0
  7  8  2  0
  8  9  1  0
  9 10  2  0
 10 11  1  0
 11 12  2  0
 12 13  1  0
 13 14  1  0
 14 15  1  0
 15 16  1  0
 16 17  1  6
 16 18  1  0
 18 19  1  0
 19 20  2  0
 20 21  1  0
 21 22  1  0
 22 23  2  0
 23 24  1  0
 24 25  2  0
 25 26  1  0
 26 27  2  0
 13 28  2  0
  8 29  1  0
 29 30  2  0
 30  2  1  0
 30  5  1  0
 28  9  1  0
 27 19  1  0
 27 22  1  0
M  CHG  1  17   1
M  END
>  <shape_align_shape_tanimoto>  (2) 
0.26711381452255933

>  <shape_align_color_tanimoto>  (2) 
0.049467812183348982

>  <metric>  (2) 
color

>  <metric_score>  (2) 
0.049

>  <template_pid>  (2) 
2JDS

>  <template_shape_score>  (2) 
0.267

>  <template_color_score>  (2) 
0.049

>  <template_combo_score>  (2) 
0.158

$$$$
2JDS_combo_pose
     RDKit          3D

 30 34  0  0  0  0  0  0  0  0999 V2000
  -12.4982   59.7409  -10.0657 C   0  0  0  0  0  0  0  0  0  0  0  0
  -13.9780   59.7343   -9.9139 C   0  0  0  0  0  0  0  0  0  0  0  0
  -14.8475   60.1885  -10.8105 N   0  0  0  0  0  0  0  0  0  0  0  0
  -16.0704   60.0245  -10.3447 N   0  0  0  0  0  0  0  0  0  0  0  0
  -16.0064   59.4579   -9.1316 C   0  0  0  0  0  0  0  0  0  0  0  0
  -16.9871   59.0852   -8.2378 C   0  0  0  0  0  0  0  0  0  0  0  0
  -16.5888   58.5169   -7.0507 C   0  0  0  0  0  0  0  0  0  0  0  0
  -15.2571   58.3079   -6.7240 C   0  0  0  0  0  0  0  0  0  0  0  0
  -14.9814   57.6977   -5.4276 C   0  0  0  0  0  0  0  0  0  0  0  0
  -15.8287   57.9576   -4.4013 C   0  0  0  0  0  0  0  0  0  0  0  0
  -15.6028   57.4118   -3.1950 N   0  0  0  0  0  0  0  0  0  0  0  0
  -14.5583   56.6083   -2.9577 C   0  0  0  0  0  0  0  0  0  0  0  0
  -13.6284   56.2894   -3.9771 C   0  0  0  0  0  0  0  0  0  0  0  0
  -12.6276   55.4829   -3.6406 O   0  0  0  0  0  0  0  0  0  0  0  0
  -11.5219   54.8622   -4.0580 C   0  0  0  0  0  0  0  0  0  0  0  0
  -10.3352   55.6302   -4.5255 C   0  0  1  0  0  0  0  0  0  0  0  0
  -10.5761   56.4578   -5.6565 N   0  0  0  0  0  0  0  0  0  0  0  0
   -9.6882   56.3908   -3.3785 C   0  0  0  0  0  0  0  0  0  0  0  0
   -9.2438   55.4498   -2.3199 C   0  0  0  0  0  0  0  0  0  0  0  0
   -9.8560   55.2099   -1.1040 C   0  0  0  0  0  0  0  0  0  0  0  0
   -9.1622   54.2872   -0.4018 N   0  0  0  0  0  0  0  0  0  0  0  0
   -8.0916   53.9228   -1.1632 C   0  0  0  0  0  0  0  0  0  0  0  0
   -7.0809   53.0005   -0.8740 C   0  0  0  0  0  0  0  0  0  0  0  0
   -6.0982   52.8157   -1.8325 C   0  0  0  0  0  0  0  0  0  0  0  0
   -6.0918   53.4984   -3.0297 C   0  0  0  0  0  0  0  0  0  0  0  0
   -7.1210   54.4111   -3.2783 C   0  0  0  0  0  0  0  0  0  0  0  0
   -8.1262   54.6227   -2.3370 C   0  0  0  0  0  0  0  0  0  0  0  0
  -13.9025   56.8710   -5.1939 C   0  0  0  0  0  0  0  0  0  0  0  0
  -14.2849   58.6800   -7.6161 C   0  0  0  0  0  0  0  0  0  0  0  0
  -14.6785   59.2578   -8.8241 C   0  0  0  0  0  0  0  0  0  0  0  0
  1  2  1  0
  2  3  2  0
  3  4  1  0
  4  5  1  0
  5  6  2  0
  6  7  1  0
  7  8  2  0
  8  9  1  0
  9 10  2  0
 10 11  1  0
 11 12  2  0
 12 13  1  0
 13 14  1  0
 14 15  1  0
 15 16  1  0
 16 17  1  6
 16 18  1  0
 18 19  1  0
 19 20  2  0
 20 21  1  0
 21 22  1  0
 22 23  2  0
 23 24  1  0
 24 25  2  0
 25 26  1  0
 26 27  2  0
 13 28  2  0
  8 29  1  0
 29 30  2  0
 30  2  1  0
 30  5  1  0
 28  9  1  0
 27 19  1  0
 27 22  1  0
M  CHG  1  17   1
M  END
>  <shape_align_shape_tanimoto>  (3) 
0.31231849189066285

>  <shape_align_color_tanimoto>  (3) 
0.015999013496053031

>  <metric>  (3) 
combo

>  <metric_score>  (3) 
0.164

>  <template_pid>  (3) 
2JDS

>  <template_shape_score>  (3) 
0.312

>  <template_color_score>  (3) 
0.016

>  <template_combo_score>  (3) 
0.164

$$$$
