6M8W_shape_pose
     RDKit          3D

 28 28  0  0  0  0  0  0  0  0999 V2000
    7.8056   45.0588   32.4573 C   0  0  0  0  0  0  0  0  0  0  0  0
    7.9006   43.9054   33.3936 C   0  0  0  0  0  0  0  0  0  0  0  0
    6.9314   42.7908   33.0812 C   0  0  2  0  0  0  0  0  0  0  0  0
    5.5048   43.2126   33.1309 C   0  0  0  0  0  0  0  0  0  0  0  0
    7.2332   41.5830   33.9384 C   0  0  2  0  0  0  0  0  0  0  0  0
    7.1313   41.8618   35.3480 N   0  0  0  0  0  0  0  0  0  0  0  0
    6.2608   41.1459   36.2296 C   0  0  0  0  0  0  0  0  0  0  0  0
    6.2056   41.4907   37.6913 C   0  0  0  0  0  0  0  0  0  0  0  0
    5.5181   40.2178   35.8383 O   0  0  0  0  0  0  0  0  0  0  0  0
    8.5866   41.1043   33.5521 C   0  0  0  0  0  0  0  0  0  0  0  0
    8.8062   40.8254   32.3415 O   0  0  0  0  0  0  0  0  0  0  0  0
    9.5743   40.9818   34.5649 N   0  0  0  0  0  0  0  0  0  0  0  0
   10.9181   40.5335   34.3359 C   0  0  1  0  0  0  0  0  0  0  0  0
   11.9499   41.5836   34.6761 C   0  0  0  0  0  0  0  0  0  0  0  0
   11.2086   39.2647   35.0657 C   0  0  0  0  0  0  0  0  0  0  0  0
   10.3375   38.6949   35.7865 O   0  0  0  0  0  0  0  0  0  0  0  0
   12.5085   38.7042   34.9283 N   0  0  0  0  0  0  0  0  0  0  0  0
   12.8267   37.4863   35.6132 C   0  0  1  0  0  0  0  0  0  0  0  0
   13.1174   36.3427   34.6809 C   0  0  0  0  0  0  0  0  0  0  0  0
   11.9161   36.0970   33.8386 C   0  0  0  0  0  0  0  0  0  0  0  0
   11.7187   36.7262   32.6203 C   0  0  0  0  0  0  0  0  0  0  0  0
   10.5855   36.4824   31.8446 C   0  0  0  0  0  0  0  0  0  0  0  0
    9.6624   35.5844   32.3409 C   0  0  0  0  0  0  0  0  0  0  0  0
    9.8464   34.9498   33.5541 C   0  0  0  0  0  0  0  0  0  0  0  0
   10.9784   35.2027   34.3138 C   0  0  0  0  0  0  0  0  0  0  0  0
   13.8819   37.6535   36.6363 C   0  0  0  0  0  0  0  0  0  0  0  0
   15.0526   37.1901   36.4779 O   0  0  0  0  0  0  0  0  0  0  0  0
   13.6320   38.3307   37.8227 O   0  0  0  0  0  0  0  0  0  0  0  0
  1  2  1  0
  2  3  1  0
  3  4  1  1
  3  5  1  0
  5  6  1  1
  6  7  1  0
  7  8  1  0
  7  9  2  0
  5 10  1  0
 10 11  2  0
 10 12  1  0
 12 13  1  0
 13 14  1  1
 13 15  1  0
 15 16  2  0
 15 17  1  0
 17 18  1  0
 18 19  1  6
 19 20  1  0
 20 21  2  0
 21 22  1  0
 22 23  2  0
 23 24  1  0
 24 25  2  0
 18 26  1  0
 26 27  2  0
 26 28  1  0
 25 20  1  0
M  CHG  1  28  -1
M  END
>  <shape_align_shape_tanimoto>  (1) 
0.39750462354512228

>  <shape_align_color_tanimoto>  (1) 
0.013084117456194143

>  <metric>  (1) 
shape

>  <metric_score>  (1) 
0.398

>  <template_pid>  (1) 
6M8W

>  <template_shape_score>  (1) 
0.398

>  <template_color_score>  (1) 
0.013

>  <template_combo_score>  (1) 
0.205

$$$$
6M8W_color_pose
     RDKit          3D

 28 28  0  0  0  0  0  0  0  0999 V2000
    8.1550   32.4407   32.8050 C   0  0  0  0  0  0  0  0  0  0  0  0
    9.0101   33.5816   33.3551 C   0  0  0  0  0  0  0  0  0  0  0  0
    9.3622   34.5592   32.2585 C   0  0  2  0  0  0  0  0  0  0  0  0
   10.1497   33.8577   31.1936 C   0  0  0  0  0  0  0  0  0  0  0  0
    9.8715   35.8372   32.7669 C   0  0  2  0  0  0  0  0  0  0  0  0
   10.2264   36.8217   31.7453 N   0  0  0  0  0  0  0  0  0  0  0  0
   11.4237   36.7558   30.9870 C   0  0  0  0  0  0  0  0  0  0  0  0
   11.7232   37.8108   29.9543 C   0  0  0  0  0  0  0  0  0  0  0  0
   12.2922   35.8579   31.1059 O   0  0  0  0  0  0  0  0  0  0  0  0
   10.8989   35.7187   33.8308 C   0  0  0  0  0  0  0  0  0  0  0  0
   10.8784   34.8501   34.7402 O   0  0  0  0  0  0  0  0  0  0  0  0
   12.0237   36.6245   33.8973 N   0  0  0  0  0  0  0  0  0  0  0  0
   13.0243   36.4714   34.9635 C   0  0  1  0  0  0  0  0  0  0  0  0
   14.3946   36.2158   34.3802 C   0  0  0  0  0  0  0  0  0  0  0  0
   13.0268   37.7446   35.7307 C   0  0  0  0  0  0  0  0  0  0  0  0
   13.8383   37.8071   36.7075 O   0  0  0  0  0  0  0  0  0  0  0  0
   12.1874   38.8440   35.4191 N   0  0  0  0  0  0  0  0  0  0  0  0
   12.2578   40.0437   36.2207 C   0  0  1  0  0  0  0  0  0  0  0  0
   12.7045   41.2386   35.4135 C   0  0  0  0  0  0  0  0  0  0  0  0
   11.8108   41.5539   34.2904 C   0  0  0  0  0  0  0  0  0  0  0  0
   12.0725   40.9516   33.0550 C   0  0  0  0  0  0  0  0  0  0  0  0
   11.2714   41.2085   31.9691 C   0  0  0  0  0  0  0  0  0  0  0  0
   10.1746   42.0730   32.0556 C   0  0  0  0  0  0  0  0  0  0  0  0
    9.9179   42.6694   33.2850 C   0  0  0  0  0  0  0  0  0  0  0  0
   10.7282   42.4050   34.3694 C   0  0  0  0  0  0  0  0  0  0  0  0
   10.9562   40.2761   36.8963 C   0  0  0  0  0  0  0  0  0  0  0  0
    9.8831   39.6972   36.5243 O   0  0  0  0  0  0  0  0  0  0  0  0
   10.8971   41.1583   37.9778 O   0  0  0  0  0  0  0  0  0  0  0  0
  1  2  1  0
  2  3  1  0
  3  4  1  6
  3  5  1  0
  5  6  1  6
  6  7  1  0
  7  8  1  0
  7  9  2  0
  5 10  1  0
 10 11  2  0
 10 12  1  0
 12 13  1  0
 13 14  1  6
 13 15  1  0
 15 16  2  0
 15 17  1  0
 17 18  1  0
 18 19  1  6
 19 20  1  0
 20 21  2  0
 21 22  1  0
 22 23  2  0
 23 24  1  0
 24 25  2  0
 18 26  1  0
 26 27  2  0
 26 28  1  0
 25 20  1  0
M  CHG  1  28  -1
M  END
>  <shape_align_shape_tanimoto>  (2) 
0.35752616524867203

>  <shape_align_color_tanimoto>  (2) 
0.12924412007926514

>  <metric>  (2) 
color

>  <metric_score>  (2) 
0.129

>  <template_pid>  (2) 
6M8W

>  <template_shape_score>  (2) 
0.358

>  <template_color_score>  (2) 
0.129

>  <template_combo_score>  (2) 
0.243

$$$$
6M8W_combo_pose
     RDKit          3D

 28 28  0  0  0  0  0  0  0  0999 V2000
    8.1550   32.4407   32.8050 C   0  0  0  0  0  0  0  0  0  0  0  0
    9.0101   33.5816   33.3551 C   0  0  0  0  0  0  0  0  0  0  0  0
    9.3622   34.5592   32.2585 C   0  0  2  0  0  0  0  0  0  0  0  0
   10.1497   33.8577   31.1936 C   0  0  0  0  0  0  0  0  0  0  0  0
    9.8715   35.8372   32.7669 C   0  0  2  0  0  0  0  0  0  0  0  0
   10.2264   36.8217   31.7453 N   0  0  0  0  0  0  0  0  0  0  0  0
   11.4237   36.7558   30.9870 C   0  0  0  0  0  0  0  0  0  0  0  0
   11.7232   37.8108   29.9543 C   0  0  0  0  0  0  0  0  0  0  0  0
   12.2922   35.8579   31.1059 O   0  0  0  0  0  0  0  0  0  0  0  0
   10.8989   35.7187   33.8308 C   0  0  0  0  0  0  0  0  0  0  0  0
   10.8784   34.8501   34.7402 O   0  0  0  0  0  0  0  0  0  0  0  0
   12.0237   36.6245   33.8973 N   0  0  0  0  0  0  0  0  0  0  0  0
   13.0243   36.4714   34.9635 C   0  0  1  0  0  0  0  0  0  0  0  0
   14.3946   36.2158   34.3802 C   0  0  0  0  0  0  0  0  0  0  0  0
   13.0268   37.7446   35.7307 C   0  0  0  0  0  0  0  0  0  0  0  0
   13.8383   37.8071   36.7075 O   0  0  0  0  0  0  0  0  0  0  0  0
   12.1874   38.8440   35.4191 N   0  0  0  0  0  0  0  0  0  0  0  0
   12.2578   40.0437   36.2207 C   0  0  1  0  0  0  0  0  0  0  0  0
   12.7045   41.2386   35.4135 C   0  0  0  0  0  0  0  0  0  0  0  0
   11.8108   41.5539   34.2904 C   0  0  0  0  0  0  0  0  0  0  0  0
   12.0725   40.9516   33.0550 C   0  0  0  0  0  0  0  0  0  0  0  0
   11.2714   41.2085   31.9691 C   0  0  0  0  0  0  0  0  0  0  0  0
   10.1746   42.0730   32.0556 C   0  0  0  0  0  0  0  0  0  0  0  0
    9.9179   42.6694   33.2850 C   0  0  0  0  0  0  0  0  0  0  0  0
   10.7282   42.4050   34.3694 C   0  0  0  0  0  0  0  0  0  0  0  0
   10.9562   40.2761   36.8963 C   0  0  0  0  0  0  0  0  0  0  0  0
    9.8831   39.6972   36.5243 O   0  0  0  0  0  0  0  0  0  0  0  0
   10.8971   41.1583   37.9778 O   0  0  0  0  0  0  0  0  0  0  0  0
  1  2  1  0
  2  3  1  0
  3  4  1  6
  3  5  1  0
  5  6  1  6
  6  7  1  0
  7  8  1  0
  7  9  2  0
  5 10  1  0
 10 11  2  0
 10 12  1  0
 12 13  1  0
 13 14  1  6
 13 15  1  0
 15 16  2  0
 15 17  1  0
 17 18  1  0
 18 19  1  6
 19 20  1  0
 20 21  2  0
 21 22  1  0
 22 23  2  0
 23 24  1  0
 24 25  2  0
 18 26  1  0
 26 27  2  0
 26 28  1  0
 25 20  1  0
M  CHG  1  28  -1
M  END
>  <shape_align_shape_tanimoto>  (3) 
0.35752616524867203

>  <shape_align_color_tanimoto>  (3) 
0.12924412007926514

>  <metric>  (3) 
combo

>  <metric_score>  (3) 
0.243

>  <template_pid>  (3) 
6M8W

>  <template_shape_score>  (3) 
0.358

>  <template_color_score>  (3) 
0.129

>  <template_combo_score>  (3) 
0.243

$$$$
