6HM7_shape_pose
     RDKit          3D

 28 31  0  0  0  0  0  0  0  0999 V2000
   -9.9566    6.5603   56.5463 C   0  0  0  0  0  0  0  0  0  0  0  0
   -9.7554    6.9262   55.1942 O   0  0  0  0  0  0  0  0  0  0  0  0
   -9.2400    6.0425   54.2527 C   0  0  0  0  0  0  0  0  0  0  0  0
   -8.8860    4.7393   54.5696 C   0  0  0  0  0  0  0  0  0  0  0  0
   -8.3745    3.8833   53.6058 C   0  0  0  0  0  0  0  0  0  0  0  0
   -8.2013    4.3009   52.3002 C   0  0  0  0  0  0  0  0  0  0  0  0
   -8.5524    5.6004   51.9763 C   0  0  0  0  0  0  0  0  0  0  0  0
   -8.3811    6.0129   50.6861 O   0  0  0  0  0  0  0  0  0  0  0  0
   -7.8831    5.2787   49.6102 C   0  0  0  0  0  0  0  0  0  0  0  0
   -7.8670    6.1207   48.3778 C   0  0  0  0  0  0  0  0  0  0  0  0
   -8.3107    7.4444   48.4141 C   0  0  0  0  0  0  0  0  0  0  0  0
   -8.3042    8.2428   47.2823 C   0  0  0  0  0  0  0  0  0  0  0  0
   -8.7747    9.6591   47.3029 C   0  0  0  0  0  0  0  0  0  0  0  0
   -7.8304    7.6491   46.1102 C   0  0  0  0  0  0  0  0  0  0  0  0
   -7.3931    6.3415   46.0790 C   0  0  0  0  0  0  0  0  0  0  0  0
   -7.4176    5.5998   47.2079 N   0  0  0  0  0  0  0  0  0  0  0  0
   -9.0649    6.4640   52.9335 C   0  0  0  0  0  0  0  0  0  0  0  0
   -9.4021    7.8049   52.4931 C   0  0  0  0  0  0  0  0  0  0  0  0
  -10.7060    7.9924   52.0293 C   0  0  0  0  0  0  0  0  0  0  0  0
  -11.1284    9.2288   51.5875 C   0  0  0  0  0  0  0  0  0  0  0  0
  -10.2455   10.3089   51.6021 C   0  0  0  0  0  0  0  0  0  0  0  0
   -8.9643   10.0920   52.0658 C   0  0  0  0  0  0  0  0  0  0  0  0
   -8.5182    8.8644   52.5131 C   0  0  0  0  0  0  0  0  0  0  0  0
   -7.8673   11.0953   52.1678 C   0  0  0  0  0  0  0  0  0  0  0  0
   -8.4255   12.2899   52.9140 C   0  0  0  0  0  0  0  0  0  0  0  0
   -9.3003   13.0728   52.0769 N   0  0  0  0  0  0  0  0  0  0  0  0
  -10.6743   12.6169   52.1376 C   0  0  0  0  0  0  0  0  0  0  0  0
  -10.9202   11.5292   51.0834 C   0  0  0  0  0  0  0  0  0  0  0  0
  1  2  1  0
  2  3  1  0
  3  4  2  0
  4  5  1  0
  5  6  2  0
  6  7  1  0
  7  8  1  0
  8  9  1  0
  9 10  1  0
 10 11  2  0
 11 12  1  0
 12 13  1  0
 12 14  2  0
 14 15  1  0
 15 16  2  0
  7 17  2  0
 17 18  1  0
 18 19  2  0
 19 20  1  0
 20 21  2  0
 21 22  1  0
 22 23  2  0
 22 24  1  0
 24 25  1  0
 25 26  1  0
 26 27  1  0
 27 28  1  0
 17  3  1  0
 23 18  1  0
 16 10  1  0
 28 21  1  0
M  CHG  1  26   1
M  END
>  <shape_align_shape_tanimoto>  (1) 
0.71178567692381844

>  <shape_align_color_tanimoto>  (1) 
0.10655117690771188

>  <metric>  (1) 
shape

>  <metric_score>  (1) 
0.712

>  <template_pid>  (1) 
6HM7

>  <template_shape_score>  (1) 
0.712

>  <template_color_score>  (1) 
0.107

>  <template_combo_score>  (1) 
0.409

$$$$
6HM7_color_pose
     RDKit          3D

 28 31  0  0  0  0  0  0  0  0999 V2000
   -9.4324    6.1263   56.2950 C   0  0  0  0  0  0  0  0  0  0  0  0
   -9.2875    6.7553   55.0348 O   0  0  0  0  0  0  0  0  0  0  0  0
   -8.9710    5.9328   53.9577 C   0  0  0  0  0  0  0  0  0  0  0  0
   -8.7999    4.5689   54.0761 C   0  0  0  0  0  0  0  0  0  0  0  0
   -8.4824    3.7767   52.9706 C   0  0  0  0  0  0  0  0  0  0  0  0
   -8.3479    4.4171   51.7583 C   0  0  0  0  0  0  0  0  0  0  0  0
   -8.5098    5.7772   51.5929 C   0  0  0  0  0  0  0  0  0  0  0  0
   -8.3719    6.4140   50.3649 O   0  0  0  0  0  0  0  0  0  0  0  0
   -8.0502    5.5984   49.2545 C   0  0  0  0  0  0  0  0  0  0  0  0
   -7.9185    6.3275   47.9868 C   0  0  0  0  0  0  0  0  0  0  0  0
   -8.0978    7.6922   47.9040 C   0  0  0  0  0  0  0  0  0  0  0  0
   -7.9729    8.3750   46.7089 C   0  0  0  0  0  0  0  0  0  0  0  0
   -8.1623    9.8324   46.6099 C   0  0  0  0  0  0  0  0  0  0  0  0
   -7.6557    7.6041   45.5953 C   0  0  0  0  0  0  0  0  0  0  0  0
   -7.4824    6.2260   45.7210 C   0  0  0  0  0  0  0  0  0  0  0  0
   -7.6074    5.5862   46.8828 N   0  0  0  0  0  0  0  0  0  0  0  0
   -8.8277    6.5550   52.7123 C   0  0  0  0  0  0  0  0  0  0  0  0
   -9.0135    8.0019   52.6091 C   0  0  0  0  0  0  0  0  0  0  0  0
   -7.8953    8.7873   52.7883 C   0  0  0  0  0  0  0  0  0  0  0  0
   -7.9860   10.1700   52.7069 C   0  0  0  0  0  0  0  0  0  0  0  0
   -9.2225   10.7210   52.4430 C   0  0  0  0  0  0  0  0  0  0  0  0
  -10.3610    9.9689   52.2582 C   0  0  0  0  0  0  0  0  0  0  0  0
  -10.2387    8.5819   52.3460 C   0  0  0  0  0  0  0  0  0  0  0  0
  -11.7722   10.3347   51.9696 C   0  0  0  0  0  0  0  0  0  0  0  0
  -11.7550   11.2880   50.7966 C   0  0  0  0  0  0  0  0  0  0  0  0
  -10.4134   11.6810   50.4396 N   0  0  0  0  0  0  0  0  0  0  0  0
   -9.9279   12.7722   51.2597 C   0  0  0  0  0  0  0  0  0  0  0  0
   -9.1015   12.2021   52.3979 C   0  0  0  0  0  0  0  0  0  0  0  0
  1  2  1  0
  2  3  1  0
  3  4  2  0
  4  5  1  0
  5  6  2  0
  6  7  1  0
  7  8  1  0
  8  9  1  0
  9 10  1  0
 10 11  2  0
 11 12  1  0
 12 13  1  0
 12 14  2  0
 14 15  1  0
 15 16  2  0
  7 17  2  0
 17 18  1  0
 18 19  2  0
 19 20  1  0
 20 21  2  0
 21 22  1  0
 22 23  2  0
 22 24  1  0
 24 25  1  0
 25 26  1  0
 26 27  1  0
 27 28  1  0
 17  3  1  0
 23 18  1  0
 16 10  1  0
 28 21  1  0
M  CHG  1  26   1
M  END
>  <shape_align_shape_tanimoto>  (2) 
0.64281713256697726

>  <shape_align_color_tanimoto>  (2) 
0.14183259716187502

>  <metric>  (2) 
color

>  <metric_score>  (2) 
0.142

>  <template_pid>  (2) 
6HM7

>  <template_shape_score>  (2) 
0.643

>  <template_color_score>  (2) 
0.142

>  <template_combo_score>  (2) 
0.392

$$$$
6HM7_combo_pose
     RDKit          3D

 28 31  0  0  0  0  0  0  0  0999 V2000
  -10.1012    6.5983   56.3528 C   0  0  0  0  0  0  0  0  0  0  0  0
   -9.9160    7.0246   54.9969 O   0  0  0  0  0  0  0  0  0  0  0  0
   -9.3235    6.1234   54.1224 C   0  0  0  0  0  0  0  0  0  0  0  0
   -8.9197    4.8581   54.5221 C   0  0  0  0  0  0  0  0  0  0  0  0
   -8.3271    3.9689   53.6289 C   0  0  0  0  0  0  0  0  0  0  0  0
   -8.1230    4.3346   52.2939 C   0  0  0  0  0  0  0  0  0  0  0  0
   -8.5231    5.5840   51.9042 C   0  0  0  0  0  0  0  0  0  0  0  0
   -8.3564    6.0097   50.6195 O   0  0  0  0  0  0  0  0  0  0  0  0
   -7.8037    5.3439   49.5365 C   0  0  0  0  0  0  0  0  0  0  0  0
   -7.8611    6.2607   48.3528 C   0  0  0  0  0  0  0  0  0  0  0  0
   -8.3975    7.5320   48.4486 C   0  0  0  0  0  0  0  0  0  0  0  0
   -8.3986    8.2897   47.2939 C   0  0  0  0  0  0  0  0  0  0  0  0
   -8.9608    9.6806   47.3049 C   0  0  0  0  0  0  0  0  0  0  0  0
   -7.8913    7.8080   46.1008 C   0  0  0  0  0  0  0  0  0  0  0  0
   -7.3620    6.5300   46.0418 C   0  0  0  0  0  0  0  0  0  0  0  0
   -7.3681    5.8100   47.1667 N   0  0  0  0  0  0  0  0  0  0  0  0
   -9.1172    6.4747   52.8009 C   0  0  0  0  0  0  0  0  0  0  0  0
   -9.5456    7.8092   52.3894 C   0  0  0  0  0  0  0  0  0  0  0  0
  -10.8000    8.0874   51.9042 C   0  0  0  0  0  0  0  0  0  0  0  0
  -11.0686    9.3920   51.5534 C   0  0  0  0  0  0  0  0  0  0  0  0
  -10.1491   10.4153   51.6656 C   0  0  0  0  0  0  0  0  0  0  0  0
   -8.8760   10.1194   52.1607 C   0  0  0  0  0  0  0  0  0  0  0  0
   -8.5912    8.8174   52.5166 C   0  0  0  0  0  0  0  0  0  0  0  0
   -7.6967   10.9919   52.3919 C   0  0  0  0  0  0  0  0  0  0  0  0
   -8.1440   12.4292   52.1016 C   0  0  0  0  0  0  0  0  0  0  0  0
   -9.2466   12.7906   53.0028 N   0  0  0  0  0  0  0  0  0  0  0  0
  -10.4399   12.8430   52.2123 C   0  0  0  0  0  0  0  0  0  0  0  0
  -10.6261   11.7341   51.2405 C   0  0  0  0  0  0  0  0  0  0  0  0
  1  2  1  0
  2  3  1  0
  3  4  2  0
  4  5  1  0
  5  6  2  0
  6  7  1  0
  7  8  1  0
  8  9  1  0
  9 10  1  0
 10 11  2  0
 11 12  1  0
 12 13  1  0
 12 14  2  0
 14 15  1  0
 15 16  2  0
  7 17  2  0
 17 18  1  0
 18 19  2  0
 19 20  1  0
 20 21  2  0
 21 22  1  0
 22 23  2  0
 22 24  1  0
 24 25  1  0
 25 26  1  0
 26 27  1  0
 27 28  1  0
 17  3  1  0
 23 18  1  0
 16 10  1  0
 28 21  1  0
M  CHG  1  26   1
M  END
>  <shape_align_shape_tanimoto>  (3) 
0.70482049445889272

>  <shape_align_color_tanimoto>  (3) 
0.11908507947035292

>  <metric>  (3) 
combo

>  <metric_score>  (3) 
0.412

>  <template_pid>  (3) 
6HM7

>  <template_shape_score>  (3) 
0.705

>  <template_color_score>  (3) 
0.119

>  <template_combo_score>  (3) 
0.412

$$$$
