3EVF_shape_pose
     RDKit          3D

 25 27  0  0  0  0  0  0  0  0999 V2000
    4.8956   -7.7667    5.8833 C   0  0  0  0  0  0  0  0  0  0  0  0
    6.1361   -8.1364    5.2328 N   0  0  0  0  0  0  0  0  0  0  0  0
    7.2030   -8.7676    5.7958 C   0  0  0  0  0  0  0  0  0  0  0  0
    8.1374   -8.9216    4.8594 N   0  0  0  0  0  0  0  0  0  0  0  0
    9.4036   -9.5330    5.0345 C   0  0  2  0  0  0  0  0  0  0  0  0
    9.3812  -10.8531    5.4899 O   0  0  0  0  0  0  0  0  0  0  0  0
   10.7748  -11.0888    5.4050 C   0  0  2  0  0  0  0  0  0  0  0  0
   11.1211  -12.4804    5.8539 C   0  0  0  0  0  0  0  0  0  0  0  0
   12.4960  -12.6578    5.7498 O   0  0  0  0  0  0  0  0  0  0  0  0
   12.9825  -14.1906    6.2319 P   0  0  0  0  0  0  0  0  0  0  0  0
   12.5080  -14.5099    7.6367 O   0  0  0  0  0  0  0  0  0  0  0  0
   12.4005  -15.3833    5.1779 O   0  0  0  0  0  0  0  0  0  0  0  0
   14.6722  -14.2434    6.2321 O   0  0  0  0  0  0  0  0  0  0  0  0
   11.2838  -10.0306    6.3481 C   0  0  1  0  0  0  0  0  0  0  0  0
   12.5904   -9.6799    5.9914 O   0  0  0  0  0  0  0  0  0  0  0  0
   10.3064   -8.8828    6.0541 C   0  0  1  0  0  0  0  0  0  0  0  0
   10.9620   -7.8408    5.3913 O   0  0  0  0  0  0  0  0  0  0  0  0
    7.6663   -8.3918    3.7109 C   0  0  0  0  0  0  0  0  0  0  0  0
    8.1731   -8.2697    2.4662 N   0  0  0  0  0  0  0  0  0  0  0  0
    7.5024   -7.6875    1.4473 C   0  0  0  0  0  0  0  0  0  0  0  0
    8.1433   -7.6167    0.1730 N   0  0  0  0  0  0  0  0  0  0  0  0
    6.2517   -7.1866    1.6442 N   0  0  0  0  0  0  0  0  0  0  0  0
    5.7076   -7.2920    2.8885 C   0  0  0  0  0  0  0  0  0  0  0  0
    4.5564   -6.8361    3.0878 O   0  0  0  0  0  0  0  0  0  0  0  0
    6.4043   -7.8904    3.9237 C   0  0  0  0  0  0  0  0  0  0  0  0
  1  2  1  0
  2  3  2  0
  3  4  1  0
  5  4  1  1
  5  6  1  0
  6  7  1  0
  7  8  1  1
  8  9  1  0
  9 10  1  0
 10 11  2  0
 10 12  1  0
 10 13  1  0
  7 14  1  0
 14 15  1  6
 14 16  1  0
 16 17  1  6
  4 18  1  0
 18 19  1  0
 19 20  2  0
 20 21  1  0
 20 22  1  0
 22 23  1  0
 23 24  2  0
 23 25  1  0
 25  2  1  0
 16  5  1  0
 25 18  2  0
M  CHG  1   2   1
M  END
>  <shape_align_shape_tanimoto>  (1) 
0.45521459727303609

>  <shape_align_color_tanimoto>  (1) 
0.019705678753285445

>  <metric>  (1) 
shape

>  <metric_score>  (1) 
0.455

>  <template_pid>  (1) 
3EVF

>  <template_shape_score>  (1) 
0.455

>  <template_color_score>  (1) 
0.020

>  <template_combo_score>  (1) 
0.237

$$$$
3EVF_color_pose
     RDKit          3D

 25 27  0  0  0  0  0  0  0  0999 V2000
   14.1495  -14.2205    3.2088 C   0  0  0  0  0  0  0  0  0  0  0  0
   13.5338  -13.5276    4.3310 N   0  0  0  0  0  0  0  0  0  0  0  0
   12.8312  -12.3731    4.2976 C   0  0  0  0  0  0  0  0  0  0  0  0
   12.4245  -12.0523    5.5340 N   0  0  0  0  0  0  0  0  0  0  0  0
   11.6552  -10.9301    6.0101 C   0  0  2  0  0  0  0  0  0  0  0  0
   10.8386  -11.3839    7.0364 O   0  0  0  0  0  0  0  0  0  0  0  0
    9.6043  -11.7026    6.5045 C   0  0  2  0  0  0  0  0  0  0  0  0
    9.5313  -13.1004    5.9645 C   0  0  0  0  0  0  0  0  0  0  0  0
    9.7746  -14.0828    6.8970 O   0  0  0  0  0  0  0  0  0  0  0  0
    9.6381  -15.5604    6.0619 P   0  0  0  0  0  0  0  0  0  0  0  0
   10.4128  -15.4438    4.7642 O   0  0  0  0  0  0  0  0  0  0  0  0
    8.0206  -15.7743    5.6643 O   0  0  0  0  0  0  0  0  0  0  0  0
   10.1865  -16.8613    6.9706 O   0  0  0  0  0  0  0  0  0  0  0  0
    9.4032  -10.7777    5.3139 C   0  0  1  0  0  0  0  0  0  0  0  0
    8.5269   -9.7577    5.6789 O   0  0  0  0  0  0  0  0  0  0  0  0
   10.7860  -10.2796    4.9903 C   0  0  1  0  0  0  0  0  0  0  0  0
   10.7727   -8.8901    5.2532 O   0  0  0  0  0  0  0  0  0  0  0  0
   12.8863  -13.0335    6.3589 C   0  0  0  0  0  0  0  0  0  0  0  0
   12.7762  -13.2247    7.6981 N   0  0  0  0  0  0  0  0  0  0  0  0
   13.3124  -14.2772    8.3428 C   0  0  0  0  0  0  0  0  0  0  0  0
   13.1374  -14.3838    9.7585 N   0  0  0  0  0  0  0  0  0  0  0  0
   13.9836  -15.1699    7.6153 N   0  0  0  0  0  0  0  0  0  0  0  0
   14.1265  -15.0315    6.2739 C   0  0  0  0  0  0  0  0  0  0  0  0
   14.7672  -15.8965    5.6257 O   0  0  0  0  0  0  0  0  0  0  0  0
   13.5714  -13.9429    5.6097 C   0  0  0  0  0  0  0  0  0  0  0  0
  1  2  1  0
  2  3  2  0
  3  4  1  0
  5  4  1  6
  5  6  1  0
  6  7  1  0
  7  8  1  6
  8  9  1  0
  9 10  1  0
 10 11  2  0
 10 12  1  0
 10 13  1  0
  7 14  1  0
 14 15  1  1
 14 16  1  0
 16 17  1  1
  4 18  1  0
 18 19  1  0
 19 20  2  0
 20 21  1  0
 20 22  1  0
 22 23  1  0
 23 24  2  0
 23 25  1  0
 25  2  1  0
 16  5  1  0
 25 18  2  0
M  CHG  1   2   1
M  END
>  <shape_align_shape_tanimoto>  (2) 
0.36917900310987495

>  <shape_align_color_tanimoto>  (2) 
0.066188726238419038

>  <metric>  (2) 
color

>  <metric_score>  (2) 
0.066

>  <template_pid>  (2) 
3EVF

>  <template_shape_score>  (2) 
0.369

>  <template_color_score>  (2) 
0.066

>  <template_combo_score>  (2) 
0.218

$$$$
3EVF_combo_pose
     RDKit          3D

 25 27  0  0  0  0  0  0  0  0999 V2000
    4.6706   -8.1935    5.7964 C   0  0  0  0  0  0  0  0  0  0  0  0
    5.9657   -8.3889    5.1517 N   0  0  0  0  0  0  0  0  0  0  0  0
    7.0475   -9.0474    5.6513 C   0  0  0  0  0  0  0  0  0  0  0  0
    8.0306   -8.9962    4.7438 N   0  0  0  0  0  0  0  0  0  0  0  0
    9.3350   -9.5601    4.8642 C   0  0  2  0  0  0  0  0  0  0  0  0
    9.4096  -10.9324    4.7683 O   0  0  0  0  0  0  0  0  0  0  0  0
   10.7413  -11.2017    5.0425 C   0  0  2  0  0  0  0  0  0  0  0  0
   10.9293  -12.5783    5.6833 C   0  0  0  0  0  0  0  0  0  0  0  0
   12.3106  -12.6972    5.8956 O   0  0  0  0  0  0  0  0  0  0  0  0
   12.7111  -14.1700    6.6042 P   0  0  0  0  0  0  0  0  0  0  0  0
   13.9689  -14.6923    5.9486 O   0  0  0  0  0  0  0  0  0  0  0  0
   11.4551  -15.2850    6.4612 O   0  0  0  0  0  0  0  0  0  0  0  0
   13.0475  -13.9313    8.2584 O   0  0  0  0  0  0  0  0  0  0  0  0
   11.2486  -10.1486    5.9986 C   0  0  1  0  0  0  0  0  0  0  0  0
   12.0596   -9.2771    5.2673 O   0  0  0  0  0  0  0  0  0  0  0  0
    9.9480   -9.3772    6.2593 C   0  0  1  0  0  0  0  0  0  0  0  0
   10.1545   -8.0286    6.4445 O   0  0  0  0  0  0  0  0  0  0  0  0
    7.5575   -8.3087    3.6878 C   0  0  0  0  0  0  0  0  0  0  0  0
    8.1430   -7.9818    2.5258 N   0  0  0  0  0  0  0  0  0  0  0  0
    7.5037   -7.2791    1.5732 C   0  0  0  0  0  0  0  0  0  0  0  0
    8.2176   -6.9866    0.3790 N   0  0  0  0  0  0  0  0  0  0  0  0
    6.2305   -6.8862    1.7860 N   0  0  0  0  0  0  0  0  0  0  0  0
    5.6129   -7.2005    2.9477 C   0  0  0  0  0  0  0  0  0  0  0  0
    4.4217   -6.8441    3.1702 O   0  0  0  0  0  0  0  0  0  0  0  0
    6.2482   -7.9199    3.9385 C   0  0  0  0  0  0  0  0  0  0  0  0
  1  2  1  0
  2  3  2  0
  3  4  1  0
  5  4  1  1
  5  6  1  0
  6  7  1  0
  7  8  1  1
  8  9  1  0
  9 10  1  0
 10 11  2  0
 10 12  1  0
 10 13  1  0
  7 14  1  0
 14 15  1  6
 14 16  1  0
 16 17  1  6
  4 18  1  0
 18 19  1  0
 19 20  2  0
 20 21  1  0
 20 22  1  0
 22 23  1  0
 23 24  2  0
 23 25  1  0
 25  2  1  0
 16  5  1  0
 25 18  2  0
M  CHG  1   2   1
M  END
>  <shape_align_shape_tanimoto>  (3) 
0.44912742065594419

>  <shape_align_color_tanimoto>  (3) 
0.032773433663532206

>  <metric>  (3) 
combo

>  <metric_score>  (3) 
0.241

>  <template_pid>  (3) 
3EVF

>  <template_shape_score>  (3) 
0.449

>  <template_color_score>  (3) 
0.033

>  <template_combo_score>  (3) 
0.241

$$$$
