5KS7_shape_pose
     RDKit          3D

 44 50  0  0  0  0  0  0  0  0999 V2000
   13.4384    2.2485  -32.5407 N   0  0  0  0  0  0  0  0  0  0  0  0
   14.7111    1.7912  -32.1314 C   0  0  0  0  0  0  0  0  0  0  0  0
   15.8276    2.2109  -32.7795 N   0  0  0  0  0  0  0  0  0  0  0  0
   17.0358    1.7550  -32.3643 C   0  0  0  0  0  0  0  0  0  0  0  0
   17.1709    0.9008  -31.3322 N   0  0  0  0  0  0  0  0  0  0  0  0
   16.0543    0.4917  -30.6971 C   0  0  0  0  0  0  0  0  0  0  0  0
   14.8060    0.9160  -31.0689 C   0  0  0  0  0  0  0  0  0  0  0  0
   13.9156    0.3349  -30.2496 N   0  0  0  0  0  0  0  0  0  0  0  0
   14.5841   -0.4366  -29.3827 C   0  0  0  0  0  0  0  0  0  0  0  0
   15.9124   -0.3577  -29.6380 N   0  0  0  0  0  0  0  0  0  0  0  0
   16.9793   -1.0435  -28.9237 C   0  0  2  0  0  0  0  0  0  0  0  0
   18.0817   -1.0428  -29.7443 O   0  0  0  0  0  0  0  0  0  0  0  0
   18.3091   -2.2918  -30.2235 C   0  0  2  0  0  0  0  0  0  0  0  0
   18.1818   -2.4342  -31.7312 C   0  0  0  0  0  0  0  0  0  0  0  0
   16.8410   -2.6165  -32.0687 O   0  0  0  0  0  0  0  0  0  0  0  0
   16.5866   -2.7845  -33.7061 P   0  0  1  0  0  5  0  0  0  0  0  0
   16.2118   -1.4408  -34.2875 O   0  0  0  0  0  0  0  0  0  0  0  0
   18.0711   -3.2382  -34.4039 O   0  0  0  0  0  0  0  0  0  0  0  0
   15.3663   -3.8753  -34.0867 O   0  0  0  0  0  0  0  0  0  0  0  0
   14.8186   -4.4822  -32.9640 C   0  0  1  0  0  0  0  0  0  0  0  0
   13.3054   -4.5658  -33.1076 C   0  0  1  0  0  0  0  0  0  0  0  0
   12.9373   -4.7479  -34.4334 O   0  0  0  0  0  0  0  0  0  0  0  0
   13.0138   -5.7729  -32.2482 C   0  0  2  0  0  0  0  0  0  0  0  0
   12.8307   -5.3811  -30.8533 N   0  0  0  0  0  0  0  0  0  0  0  0
   12.1100   -4.3146  -30.4336 C   0  0  0  0  0  0  0  0  0  0  0  0
   12.1447   -4.2376  -29.0844 N   0  0  0  0  0  0  0  0  0  0  0  0
   12.8900   -5.2621  -28.6821 C   0  0  0  0  0  0  0  0  0  0  0  0
   13.2718   -5.6873  -27.4145 C   0  0  0  0  0  0  0  0  0  0  0  0
   12.8347   -4.9579  -26.2791 N   0  0  0  0  0  0  0  0  0  0  0  0
   14.0457   -6.7754  -27.2564 N   0  0  0  0  0  0  0  0  0  0  0  0
   14.4471   -7.4511  -28.3624 C   0  0  0  0  0  0  0  0  0  0  0  0
   14.1005   -7.0732  -29.5992 N   0  0  0  0  0  0  0  0  0  0  0  0
   13.3239   -5.9806  -29.7499 C   0  0  0  0  0  0  0  0  0  0  0  0
   14.1147   -6.6013  -32.3015 O   0  0  0  0  0  0  0  0  0  0  0  0
   15.1800   -5.9144  -32.8512 C   0  0  2  0  0  0  0  0  0  0  0  0
   16.4402   -6.2014  -32.0851 C   0  0  0  0  0  0  0  0  0  0  0  0
   16.4715   -5.4723  -30.9205 O   0  0  0  0  0  0  0  0  0  0  0  0
   17.8636   -5.7456  -30.0059 P   0  0  1  0  0  5  0  0  0  0  0  0
   17.7351   -6.9960  -29.1455 O   0  0  0  0  0  0  0  0  0  0  0  0
   19.2097   -5.8732  -31.0257 O   0  0  0  0  0  0  0  0  0  0  0  0
   18.0578   -4.3740  -29.0024 O   0  0  0  0  0  0  0  0  0  0  0  0
   17.4156   -3.2856  -29.5442 C   0  0  1  0  0  0  0  0  0  0  0  0
   16.6509   -2.4537  -28.5610 C   0  0  1  0  0  0  0  0  0  0  0  0
   16.9179   -2.7816  -27.2319 O   0  0  0  0  0  0  0  0  0  0  0  0
  1  2  1  0
  2  3  2  0
  3  4  1  0
  4  5  2  0
  5  6  1  0
  6  7  2  0
  7  8  1  0
  8  9  2  0
  9 10  1  0
 11 10  1  6
 11 12  1  0
 12 13  1  0
 13 14  1  6
 14 15  1  0
 15 16  1  0
 16 17  2  0
 16 18  1  6
 16 19  1  0
 20 19  1  6
 20 21  1  0
 21 22  1  6
 21 23  1  0
 23 24  1  1
 24 25  1  0
 25 26  2  0
 26 27  1  0
 27 28  2  0
 28 29  1  0
 28 30  1  0
 30 31  2  0
 31 32  1  0
 32 33  2  0
 23 34  1  0
 34 35  1  0
 35 36  1  1
 36 37  1  0
 37 38  1  0
 38 39  2  0
 38 40  1  6
 38 41  1  0
 42 41  1  1
 42 43  1  0
 43 44  1  1
  7  2  1  0
 43 11  1  0
 10  6  1  0
 42 13  1  0
 35 20  1  0
 33 24  1  0
 33 27  1  0
M  END
>  <shape_align_shape_tanimoto>  (1) 
0.50009991399916842

>  <shape_align_color_tanimoto>  (1) 
0.096837782438305431

>  <metric>  (1) 
shape

>  <metric_score>  (1) 
0.500

>  <template_pid>  (1) 
5KS7

>  <template_shape_score>  (1) 
0.500

>  <template_color_score>  (1) 
0.097

>  <template_combo_score>  (1) 
0.298

$$$$
5KS7_color_pose
     RDKit          3D

 44 50  0  0  0  0  0  0  0  0999 V2000
   20.4785    3.2877  -26.5903 N   0  0  0  0  0  0  0  0  0  0  0  0
   19.9202    1.9925  -26.4015 C   0  0  0  0  0  0  0  0  0  0  0  0
   19.1924    1.6632  -25.3082 N   0  0  0  0  0  0  0  0  0  0  0  0
   18.6847    0.4205  -25.1769 C   0  0  0  0  0  0  0  0  0  0  0  0
   18.8686   -0.5415  -26.1041 N   0  0  0  0  0  0  0  0  0  0  0  0
   19.5760   -0.2747  -27.1998 C   0  0  0  0  0  0  0  0  0  0  0  0
   20.0956    0.9922  -27.3376 C   0  0  0  0  0  0  0  0  0  0  0  0
   20.7682    1.0509  -28.5004 N   0  0  0  0  0  0  0  0  0  0  0  0
   20.6733   -0.1576  -29.0838 C   0  0  0  0  0  0  0  0  0  0  0  0
   19.9447   -0.9699  -28.2904 N   0  0  0  0  0  0  0  0  0  0  0  0
   19.6434   -2.3279  -28.5981 C   0  0  2  0  0  0  0  0  0  0  0  0
   19.3008   -2.4296  -29.9352 O   0  0  0  0  0  0  0  0  0  0  0  0
   17.9534   -2.1433  -30.0468 C   0  0  2  0  0  0  0  0  0  0  0  0
   17.7334   -0.7000  -30.5347 C   0  0  0  0  0  0  0  0  0  0  0  0
   16.6303   -0.7648  -31.3527 O   0  0  0  0  0  0  0  0  0  0  0  0
   15.7237    0.6132  -31.5149 P   0  0  1  0  0  5  0  0  0  0  0  0
   15.9696    1.6113  -30.3806 O   0  0  0  0  0  0  0  0  0  0  0  0
   16.3513    1.4188  -32.8942 O   0  0  0  0  0  0  0  0  0  0  0  0
   14.1066    0.4049  -31.8255 O   0  0  0  0  0  0  0  0  0  0  0  0
   13.3743   -0.3007  -30.8744 C   0  0  1  0  0  0  0  0  0  0  0  0
   12.5656   -1.3293  -31.6837 C   0  0  1  0  0  0  0  0  0  0  0  0
   11.9186   -0.7299  -32.7412 O   0  0  0  0  0  0  0  0  0  0  0  0
   13.7478   -2.1725  -32.1284 C   0  0  2  0  0  0  0  0  0  0  0  0
   13.3334   -3.4886  -32.6027 N   0  0  0  0  0  0  0  0  0  0  0  0
   12.4955   -4.3049  -31.9580 C   0  0  0  0  0  0  0  0  0  0  0  0
   12.3544   -5.4309  -32.7083 N   0  0  0  0  0  0  0  0  0  0  0  0
   13.0959   -5.3043  -33.7966 C   0  0  0  0  0  0  0  0  0  0  0  0
   13.3232   -6.1319  -34.8828 C   0  0  0  0  0  0  0  0  0  0  0  0
   12.6998   -7.4224  -34.9962 N   0  0  0  0  0  0  0  0  0  0  0  0
   14.1528   -5.7254  -35.8703 N   0  0  0  0  0  0  0  0  0  0  0  0
   14.7685   -4.5183  -35.8163 C   0  0  0  0  0  0  0  0  0  0  0  0
   14.5532   -3.7050  -34.7619 N   0  0  0  0  0  0  0  0  0  0  0  0
   13.7249   -4.0908  -33.7586 C   0  0  0  0  0  0  0  0  0  0  0  0
   14.5822   -2.2774  -31.0206 O   0  0  0  0  0  0  0  0  0  0  0  0
   14.2435   -1.2753  -30.1213 C   0  0  2  0  0  0  0  0  0  0  0  0
   13.4689   -1.8851  -28.9736 C   0  0  0  0  0  0  0  0  0  0  0  0
   14.2122   -1.7116  -27.7687 O   0  0  0  0  0  0  0  0  0  0  0  0
   15.1566   -3.0887  -27.4855 P   0  0  1  0  0  5  0  0  0  0  0  0
   15.8109   -2.9370  -26.1404 O   0  0  0  0  0  0  0  0  0  0  0  0
   14.1569   -4.4455  -27.4671 O   0  0  0  0  0  0  0  0  0  0  0  0
   16.3208   -3.2820  -28.6996 O   0  0  0  0  0  0  0  0  0  0  0  0
   17.3128   -2.3352  -28.6896 C   0  0  1  0  0  0  0  0  0  0  0  0
   18.4684   -2.9137  -27.8999 C   0  0  1  0  0  0  0  0  0  0  0  0
   18.4562   -4.2915  -28.1044 O   0  0  0  0  0  0  0  0  0  0  0  0
  1  2  1  0
  2  3  2  0
  3  4  1  0
  4  5  2  0
  5  6  1  0
  6  7  2  0
  7  8  1  0
  8  9  2  0
  9 10  1  0
 11 10  1  1
 11 12  1  0
 12 13  1  0
 13 14  1  1
 14 15  1  0
 15 16  1  0
 16 17  2  0
 16 18  1  6
 16 19  1  0
 20 19  1  6
 20 21  1  0
 21 22  1  6
 21 23  1  0
 23 24  1  1
 24 25  1  0
 25 26  2  0
 26 27  1  0
 27 28  2  0
 28 29  1  0
 28 30  1  0
 30 31  2  0
 31 32  1  0
 32 33  2  0
 23 34  1  0
 34 35  1  0
 35 36  1  1
 36 37  1  0
 37 38  1  0
 38 39  2  0
 38 40  1  1
 38 41  1  0
 42 41  1  6
 42 43  1  0
 43 44  1  6
  7  2  1  0
 43 11  1  0
 10  6  1  0
 42 13  1  0
 35 20  1  0
 33 24  1  0
 33 27  1  0
M  END
>  <shape_align_shape_tanimoto>  (2) 
0.44107029750712479

>  <shape_align_color_tanimoto>  (2) 
0.11817858409799083

>  <metric>  (2) 
color

>  <metric_score>  (2) 
0.118

>  <template_pid>  (2) 
5KS7

>  <template_shape_score>  (2) 
0.441

>  <template_color_score>  (2) 
0.118

>  <template_combo_score>  (2) 
0.280

$$$$
5KS7_combo_pose
     RDKit          3D

 44 50  0  0  0  0  0  0  0  0999 V2000
   13.4384    2.2485  -32.5407 N   0  0  0  0  0  0  0  0  0  0  0  0
   14.7111    1.7912  -32.1314 C   0  0  0  0  0  0  0  0  0  0  0  0
   15.8276    2.2109  -32.7795 N   0  0  0  0  0  0  0  0  0  0  0  0
   17.0358    1.7550  -32.3643 C   0  0  0  0  0  0  0  0  0  0  0  0
   17.1709    0.9008  -31.3322 N   0  0  0  0  0  0  0  0  0  0  0  0
   16.0543    0.4917  -30.6971 C   0  0  0  0  0  0  0  0  0  0  0  0
   14.8060    0.9160  -31.0689 C   0  0  0  0  0  0  0  0  0  0  0  0
   13.9156    0.3349  -30.2496 N   0  0  0  0  0  0  0  0  0  0  0  0
   14.5841   -0.4366  -29.3827 C   0  0  0  0  0  0  0  0  0  0  0  0
   15.9124   -0.3577  -29.6380 N   0  0  0  0  0  0  0  0  0  0  0  0
   16.9793   -1.0435  -28.9237 C   0  0  2  0  0  0  0  0  0  0  0  0
   18.0817   -1.0428  -29.7443 O   0  0  0  0  0  0  0  0  0  0  0  0
   18.3091   -2.2918  -30.2235 C   0  0  2  0  0  0  0  0  0  0  0  0
   18.1818   -2.4342  -31.7312 C   0  0  0  0  0  0  0  0  0  0  0  0
   16.8410   -2.6165  -32.0687 O   0  0  0  0  0  0  0  0  0  0  0  0
   16.5866   -2.7845  -33.7061 P   0  0  1  0  0  5  0  0  0  0  0  0
   16.2118   -1.4408  -34.2875 O   0  0  0  0  0  0  0  0  0  0  0  0
   18.0711   -3.2382  -34.4039 O   0  0  0  0  0  0  0  0  0  0  0  0
   15.3663   -3.8753  -34.0867 O   0  0  0  0  0  0  0  0  0  0  0  0
   14.8186   -4.4822  -32.9640 C   0  0  1  0  0  0  0  0  0  0  0  0
   13.3054   -4.5658  -33.1076 C   0  0  1  0  0  0  0  0  0  0  0  0
   12.9373   -4.7479  -34.4334 O   0  0  0  0  0  0  0  0  0  0  0  0
   13.0138   -5.7729  -32.2482 C   0  0  2  0  0  0  0  0  0  0  0  0
   12.8307   -5.3811  -30.8533 N   0  0  0  0  0  0  0  0  0  0  0  0
   12.1100   -4.3146  -30.4336 C   0  0  0  0  0  0  0  0  0  0  0  0
   12.1447   -4.2376  -29.0844 N   0  0  0  0  0  0  0  0  0  0  0  0
   12.8900   -5.2621  -28.6821 C   0  0  0  0  0  0  0  0  0  0  0  0
   13.2718   -5.6873  -27.4145 C   0  0  0  0  0  0  0  0  0  0  0  0
   12.8347   -4.9579  -26.2791 N   0  0  0  0  0  0  0  0  0  0  0  0
   14.0457   -6.7754  -27.2564 N   0  0  0  0  0  0  0  0  0  0  0  0
   14.4471   -7.4511  -28.3624 C   0  0  0  0  0  0  0  0  0  0  0  0
   14.1005   -7.0732  -29.5992 N   0  0  0  0  0  0  0  0  0  0  0  0
   13.3239   -5.9806  -29.7499 C   0  0  0  0  0  0  0  0  0  0  0  0
   14.1147   -6.6013  -32.3015 O   0  0  0  0  0  0  0  0  0  0  0  0
   15.1800   -5.9144  -32.8512 C   0  0  2  0  0  0  0  0  0  0  0  0
   16.4402   -6.2014  -32.0851 C   0  0  0  0  0  0  0  0  0  0  0  0
   16.4715   -5.4723  -30.9205 O   0  0  0  0  0  0  0  0  0  0  0  0
   17.8636   -5.7456  -30.0059 P   0  0  1  0  0  5  0  0  0  0  0  0
   17.7351   -6.9960  -29.1455 O   0  0  0  0  0  0  0  0  0  0  0  0
   19.2097   -5.8732  -31.0257 O   0  0  0  0  0  0  0  0  0  0  0  0
   18.0578   -4.3740  -29.0024 O   0  0  0  0  0  0  0  0  0  0  0  0
   17.4156   -3.2856  -29.5442 C   0  0  1  0  0  0  0  0  0  0  0  0
   16.6509   -2.4537  -28.5610 C   0  0  1  0  0  0  0  0  0  0  0  0
   16.9179   -2.7816  -27.2319 O   0  0  0  0  0  0  0  0  0  0  0  0
  1  2  1  0
  2  3  2  0
  3  4  1  0
  4  5  2  0
  5  6  1  0
  6  7  2  0
  7  8  1  0
  8  9  2  0
  9 10  1  0
 11 10  1  6
 11 12  1  0
 12 13  1  0
 13 14  1  6
 14 15  1  0
 15 16  1  0
 16 17  2  0
 16 18  1  6
 16 19  1  0
 20 19  1  6
 20 21  1  0
 21 22  1  6
 21 23  1  0
 23 24  1  1
 24 25  1  0
 25 26  2  0
 26 27  1  0
 27 28  2  0
 28 29  1  0
 28 30  1  0
 30 31  2  0
 31 32  1  0
 32 33  2  0
 23 34  1  0
 34 35  1  0
 35 36  1  1
 36 37  1  0
 37 38  1  0
 38 39  2  0
 38 40  1  6
 38 41  1  0
 42 41  1  1
 42 43  1  0
 43 44  1  1
  7  2  1  0
 43 11  1  0
 10  6  1  0
 42 13  1  0
 35 20  1  0
 33 24  1  0
 33 27  1  0
M  END
>  <shape_align_shape_tanimoto>  (3) 
0.50009991399916842

>  <shape_align_color_tanimoto>  (3) 
0.096837782438305431

>  <metric>  (3) 
combo

>  <metric_score>  (3) 
0.298

>  <template_pid>  (3) 
5KS7

>  <template_shape_score>  (3) 
0.500

>  <template_color_score>  (3) 
0.097

>  <template_combo_score>  (3) 
0.298

$$$$
