4QSH_shape_pose
     RDKit          3D

 44 50  0  0  0  0  0  0  0  0999 V2000
   16.8464    3.5055    4.1242 N   0  0  0  0  0  0  0  0  0  0  0  0
   16.7135    3.9267    5.4952 C   0  0  0  0  0  0  0  0  0  0  0  0
   16.7323    3.0120    6.5070 N   0  0  0  0  0  0  0  0  0  0  0  0
   16.6077    3.3848    7.8081 C   0  0  0  0  0  0  0  0  0  0  0  0
   16.4613    4.7005    8.1040 N   0  0  0  0  0  0  0  0  0  0  0  0
   16.4336    5.6665    7.1513 C   0  0  0  0  0  0  0  0  0  0  0  0
   16.5628    5.2652    5.8261 C   0  0  0  0  0  0  0  0  0  0  0  0
   16.5042    6.3791    5.1063 N   0  0  0  0  0  0  0  0  0  0  0  0
   16.3437    7.4449    5.9443 C   0  0  0  0  0  0  0  0  0  0  0  0
   16.2994    7.0101    7.2119 N   0  0  0  0  0  0  0  0  0  0  0  0
   16.1421    7.8063    8.3750 C   0  0  2  0  0  0  0  0  0  0  0  0
   14.9273    8.4926    8.4432 O   0  0  0  0  0  0  0  0  0  0  0  0
   15.0668    9.1692    9.6591 C   0  0  2  0  0  0  0  0  0  0  0  0
   14.0602   10.2402    9.8953 C   0  0  0  0  0  0  0  0  0  0  0  0
   13.1976    9.8666   10.9163 O   0  0  0  0  0  0  0  0  0  0  0  0
   12.1541   11.1163   11.3674 P   0  0  1  0  0  5  0  0  0  0  0  0
   12.6112   12.4333   10.7735 O   0  0  0  0  0  0  0  0  0  0  0  0
   10.6066   10.8125   10.7495 O   0  0  0  0  0  0  0  0  0  0  0  0
   12.0761   11.1593   13.0320 O   0  0  0  0  0  0  0  0  0  0  0  0
   13.3047   11.1664   13.6768 C   0  0  1  0  0  0  0  0  0  0  0  0
   12.9799   11.5965   15.1234 C   0  0  1  0  0  0  0  0  0  0  0  0
   12.0452   12.6051   15.1336 O   0  0  0  0  0  0  0  0  0  0  0  0
   12.4332   10.2515   15.5949 C   0  0  2  0  0  0  0  0  0  0  0  0
   12.0752   10.2007   16.9666 N   0  0  0  0  0  0  0  0  0  0  0  0
   12.3154    9.1119   17.7591 C   0  0  0  0  0  0  0  0  0  0  0  0
   11.8801    9.3301   18.9977 N   0  0  0  0  0  0  0  0  0  0  0  0
   11.3494   10.5490   19.0558 C   0  0  0  0  0  0  0  0  0  0  0  0
   10.7705   11.2339   20.1036 C   0  0  0  0  0  0  0  0  0  0  0  0
   10.6380   10.6836   21.4131 N   0  0  0  0  0  0  0  0  0  0  0  0
   10.3230   12.4883   19.8092 N   0  0  0  0  0  0  0  0  0  0  0  0
   10.4479   13.0035   18.5717 C   0  0  0  0  0  0  0  0  0  0  0  0
   11.0175   12.3127   17.5668 N   0  0  0  0  0  0  0  0  0  0  0  0
   11.4771   11.0779   17.7887 C   0  0  0  0  0  0  0  0  0  0  0  0
   13.5289    9.4536   15.2724 O   0  0  0  0  0  0  0  0  0  0  0  0
   13.7124    9.7223   13.9420 C   0  0  2  0  0  0  0  0  0  0  0  0
   15.1152    9.4395   13.4570 C   0  0  0  0  0  0  0  0  0  0  0  0
   15.5525   10.5738   12.7834 O   0  0  0  0  0  0  0  0  0  0  0  0
   17.0453   10.4342   12.0616 P   0  0  1  0  0  5  0  0  0  0  0  0
   17.3258   11.7771   11.3823 O   0  0  0  0  0  0  0  0  0  0  0  0
   18.2283   10.1536   13.2184 O   0  0  0  0  0  0  0  0  0  0  0  0
   17.1249    9.2796   10.8363 O   0  0  0  0  0  0  0  0  0  0  0  0
   16.4897    9.6913    9.6783 C   0  0  1  0  0  0  0  0  0  0  0  0
   17.1124    8.9553    8.5150 C   0  0  1  0  0  0  0  0  0  0  0  0
   18.4153    8.5462    8.7823 O   0  0  0  0  0  0  0  0  0  0  0  0
  1  2  1  0
  2  3  2  0
  3  4  1  0
  4  5  2  0
  5  6  1  0
  6  7  2  0
  7  8  1  0
  8  9  2  0
  9 10  1  0
 11 10  1  6
 11 12  1  0
 12 13  1  0
 13 14  1  6
 14 15  1  0
 15 16  1  0
 16 17  2  0
 16 18  1  6
 16 19  1  0
 20 19  1  6
 20 21  1  0
 21 22  1  6
 21 23  1  0
 23 24  1  1
 24 25  1  0
 25 26  2  0
 26 27  1  0
 27 28  2  0
 28 29  1  0
 28 30  1  0
 30 31  2  0
 31 32  1  0
 32 33  2  0
 23 34  1  0
 34 35  1  0
 35 36  1  1
 36 37  1  0
 37 38  1  0
 38 39  2  0
 38 40  1  1
 38 41  1  0
 42 41  1  1
 42 43  1  0
 43 44  1  1
  7  2  1  0
 43 11  1  0
 10  6  1  0
 42 13  1  0
 35 20  1  0
 33 24  1  0
 33 27  1  0
M  END
>  <shape_align_shape_tanimoto>  (1) 
0.54160764856543087

>  <shape_align_color_tanimoto>  (1) 
0.039939832938341004

>  <metric>  (1) 
shape

>  <metric_score>  (1) 
0.542

>  <template_pid>  (1) 
4QSH

>  <template_shape_score>  (1) 
0.542

>  <template_color_score>  (1) 
0.040

>  <template_combo_score>  (1) 
0.291

$$$$
4QSH_color_pose
     RDKit          3D

 44 50  0  0  0  0  0  0  0  0999 V2000
    7.5193   10.5860   20.5076 N   0  0  0  0  0  0  0  0  0  0  0  0
    8.1351   10.6367   19.2168 C   0  0  0  0  0  0  0  0  0  0  0  0
    7.4334   10.5440   18.0738 N   0  0  0  0  0  0  0  0  0  0  0  0
    8.0554   10.5969   16.8769 C   0  0  0  0  0  0  0  0  0  0  0  0
    9.3918   10.7430   16.7551 N   0  0  0  0  0  0  0  0  0  0  0  0
   10.1226   10.8384   17.8609 C   0  0  0  0  0  0  0  0  0  0  0  0
    9.5105   10.7871   19.0981 C   0  0  0  0  0  0  0  0  0  0  0  0
   10.4338   10.9017   20.0411 N   0  0  0  0  0  0  0  0  0  0  0  0
   11.6233   11.0253   19.4389 C   0  0  0  0  0  0  0  0  0  0  0  0
   11.4337   10.9866   18.1032 N   0  0  0  0  0  0  0  0  0  0  0  0
   12.5097   11.0927   17.1540 C   0  0  2  0  0  0  0  0  0  0  0  0
   12.1015   11.4659   15.8792 O   0  0  0  0  0  0  0  0  0  0  0  0
   13.0332   10.8503   15.0286 C   0  0  2  0  0  0  0  0  0  0  0  0
   12.6466   10.9411   13.5874 C   0  0  0  0  0  0  0  0  0  0  0  0
   13.7324   11.4614   12.8802 O   0  0  0  0  0  0  0  0  0  0  0  0
   13.3426   11.5124   11.2259 P   0  0  1  0  0  5  0  0  0  0  0  0
   12.2377   10.5048   10.9938 O   0  0  0  0  0  0  0  0  0  0  0  0
   12.8413   13.0380   10.7560 O   0  0  0  0  0  0  0  0  0  0  0  0
   14.7378   11.1127   10.3702 O   0  0  0  0  0  0  0  0  0  0  0  0
   14.9428    9.7372   10.2603 C   0  0  1  0  0  0  0  0  0  0  0  0
   15.5101    9.5413    8.8455 C   0  0  1  0  0  0  0  0  0  0  0  0
   15.3096   10.6403    8.0428 O   0  0  0  0  0  0  0  0  0  0  0  0
   16.9722    9.4159    9.1741 C   0  0  2  0  0  0  0  0  0  0  0  0
   17.7474    8.8323    8.1170 N   0  0  0  0  0  0  0  0  0  0  0  0
   17.3759    8.3820    6.9085 C   0  0  0  0  0  0  0  0  0  0  0  0
   18.4389    7.9066    6.2246 N   0  0  0  0  0  0  0  0  0  0  0  0
   19.5139    8.0652    7.0341 C   0  0  0  0  0  0  0  0  0  0  0  0
   20.8666    7.7679    6.8867 C   0  0  0  0  0  0  0  0  0  0  0  0
   21.3606    7.1711    5.6861 N   0  0  0  0  0  0  0  0  0  0  0  0
   21.7556    8.0373    7.8817 N   0  0  0  0  0  0  0  0  0  0  0  0
   21.2728    8.5996    9.0059 C   0  0  0  0  0  0  0  0  0  0  0  0
   19.9698    8.8961    9.1712 N   0  0  0  0  0  0  0  0  0  0  0  0
   19.0759    8.6338    8.1913 C   0  0  0  0  0  0  0  0  0  0  0  0
   16.8847    8.5634   10.2992 O   0  0  0  0  0  0  0  0  0  0  0  0
   16.1044    9.3717   11.1261 C   0  0  2  0  0  0  0  0  0  0  0  0
   15.7222    8.6841   12.4058 C   0  0  0  0  0  0  0  0  0  0  0  0
   14.3694    8.4678   12.4207 O   0  0  0  0  0  0  0  0  0  0  0  0
   13.7903    7.7214   13.8108 P   0  0  1  0  0  5  0  0  0  0  0  0
   12.3520    7.3241   13.5821 O   0  0  0  0  0  0  0  0  0  0  0  0
   14.6876    6.2868   14.0031 O   0  0  0  0  0  0  0  0  0  0  0  0
   14.0262    8.6378   15.1870 O   0  0  0  0  0  0  0  0  0  0  0  0
   12.9896    9.4350   15.5689 C   0  0  1  0  0  0  0  0  0  0  0  0
   13.1592    9.7423   17.0449 C   0  0  1  0  0  0  0  0  0  0  0  0
   14.5409    9.8288   17.2701 O   0  0  0  0  0  0  0  0  0  0  0  0
  1  2  1  0
  2  3  2  0
  3  4  1  0
  4  5  2  0
  5  6  1  0
  6  7  2  0
  7  8  1  0
  8  9  2  0
  9 10  1  0
 11 10  1  1
 11 12  1  0
 12 13  1  0
 13 14  1  6
 14 15  1  0
 15 16  1  0
 16 17  2  0
 16 18  1  6
 16 19  1  0
 20 19  1  6
 20 21  1  0
 21 22  1  6
 21 23  1  0
 23 24  1  6
 24 25  1  0
 25 26  2  0
 26 27  1  0
 27 28  2  0
 28 29  1  0
 28 30  1  0
 30 31  2  0
 31 32  1  0
 32 33  2  0
 23 34  1  0
 34 35  1  0
 35 36  1  1
 36 37  1  0
 37 38  1  0
 38 39  2  0
 38 40  1  1
 38 41  1  0
 42 41  1  6
 42 43  1  0
 43 44  1  6
  7  2  1  0
 43 11  1  0
 10  6  1  0
 42 13  1  0
 35 20  1  0
 33 24  1  0
 33 27  1  0
M  END
>  <shape_align_shape_tanimoto>  (2) 
0.43803420362383938

>  <shape_align_color_tanimoto>  (2) 
0.096860047052447454

>  <metric>  (2) 
color

>  <metric_score>  (2) 
0.097

>  <template_pid>  (2) 
4QSH

>  <template_shape_score>  (2) 
0.438

>  <template_color_score>  (2) 
0.097

>  <template_combo_score>  (2) 
0.267

$$$$
4QSH_combo_pose
     RDKit          3D

 44 50  0  0  0  0  0  0  0  0999 V2000
    9.6676   11.0559   21.8088 N   0  0  0  0  0  0  0  0  0  0  0  0
   10.7969   11.3570   20.9994 C   0  0  0  0  0  0  0  0  0  0  0  0
   11.8106   12.1048   21.4635 N   0  0  0  0  0  0  0  0  0  0  0  0
   12.8580   12.3646   20.6638 C   0  0  0  0  0  0  0  0  0  0  0  0
   12.9240   11.8908   19.3902 N   0  0  0  0  0  0  0  0  0  0  0  0
   11.9060   11.1287   18.8956 C   0  0  0  0  0  0  0  0  0  0  0  0
   10.8278   10.8581   19.7115 C   0  0  0  0  0  0  0  0  0  0  0  0
    9.9888   10.1050   18.9933 N   0  0  0  0  0  0  0  0  0  0  0  0
   10.5029    9.8974   17.7638 C   0  0  0  0  0  0  0  0  0  0  0  0
   11.6902   10.5295   17.6992 N   0  0  0  0  0  0  0  0  0  0  0  0
   12.5490   10.5506   16.5649 C   0  0  2  0  0  0  0  0  0  0  0  0
   12.1644   11.4974   15.6013 O   0  0  0  0  0  0  0  0  0  0  0  0
   13.0660   11.2840   14.5592 C   0  0  2  0  0  0  0  0  0  0  0  0
   12.3773   11.4592   13.2034 C   0  0  0  0  0  0  0  0  0  0  0  0
   13.3567   11.2094   12.2459 O   0  0  0  0  0  0  0  0  0  0  0  0
   12.7745   11.2928   10.6619 P   0  0  1  0  0  5  0  0  0  0  0  0
   11.3527   10.7976   10.6601 O   0  0  0  0  0  0  0  0  0  0  0  0
   12.8239   12.9100   10.1822 O   0  0  0  0  0  0  0  0  0  0  0  0
   13.7259   10.3770    9.6072 O   0  0  0  0  0  0  0  0  0  0  0  0
   14.6843    9.6882   10.3480 C   0  0  1  0  0  0  0  0  0  0  0  0
   15.3817    8.6520    9.5093 C   0  0  1  0  0  0  0  0  0  0  0  0
   14.5825    8.4597    8.3608 O   0  0  0  0  0  0  0  0  0  0  0  0
   16.6748    9.2700    9.1884 C   0  0  2  0  0  0  0  0  0  0  0  0
   17.8595    8.4995    9.4378 N   0  0  0  0  0  0  0  0  0  0  0  0
   18.9463    8.9021   10.1468 C   0  0  0  0  0  0  0  0  0  0  0  0
   19.8688    7.9235   10.1777 N   0  0  0  0  0  0  0  0  0  0  0  0
   19.3665    6.8980    9.4871 C   0  0  0  0  0  0  0  0  0  0  0  0
   19.9031    5.6512    9.2121 C   0  0  0  0  0  0  0  0  0  0  0  0
   21.2009    5.2641    9.6838 N   0  0  0  0  0  0  0  0  0  0  0  0
   19.1317    4.8240    8.4745 N   0  0  0  0  0  0  0  0  0  0  0  0
   17.9155    5.1891    8.0337 C   0  0  0  0  0  0  0  0  0  0  0  0
   17.3847    6.4178    8.3039 N   0  0  0  0  0  0  0  0  0  0  0  0
   18.1112    7.2557    9.0240 C   0  0  0  0  0  0  0  0  0  0  0  0
   16.7314   10.5101    9.8081 O   0  0  0  0  0  0  0  0  0  0  0  0
   15.7916   10.5901   10.7894 C   0  0  2  0  0  0  0  0  0  0  0  0
   16.2589   10.2168   12.1764 C   0  0  0  0  0  0  0  0  0  0  0  0
   15.5675    9.0709   12.5794 O   0  0  0  0  0  0  0  0  0  0  0  0
   15.8212    8.7888   14.2473 P   0  0  1  0  0  5  0  0  0  0  0  0
   15.5119    7.3420   14.5600 O   0  0  0  0  0  0  0  0  0  0  0  0
   17.4193    9.1934   14.6226 O   0  0  0  0  0  0  0  0  0  0  0  0
   14.8147    9.8121   15.1445 O   0  0  0  0  0  0  0  0  0  0  0  0
   13.5196    9.8457   14.6352 C   0  0  1  0  0  0  0  0  0  0  0  0
   12.5408    9.3291   15.7041 C   0  0  1  0  0  0  0  0  0  0  0  0
   13.0002    8.1875   16.3044 O   0  0  0  0  0  0  0  0  0  0  0  0
  1  2  1  0
  2  3  2  0
  3  4  1  0
  4  5  2  0
  5  6  1  0
  6  7  2  0
  7  8  1  0
  8  9  2  0
  9 10  1  0
 11 10  1  1
 11 12  1  0
 12 13  1  0
 13 14  1  6
 14 15  1  0
 15 16  1  0
 16 17  2  0
 16 18  1  6
 16 19  1  0
 20 19  1  6
 20 21  1  0
 21 22  1  6
 21 23  1  0
 23 24  1  1
 24 25  1  0
 25 26  2  0
 26 27  1  0
 27 28  2  0
 28 29  1  0
 28 30  1  0
 30 31  2  0
 31 32  1  0
 32 33  2  0
 23 34  1  0
 34 35  1  0
 35 36  1  1
 36 37  1  0
 37 38  1  0
 38 39  2  0
 38 40  1  1
 38 41  1  0
 42 41  1  1
 42 43  1  0
 43 44  1  1
  7  2  1  0
 43 11  1  0
 10  6  1  0
 42 13  1  0
 35 20  1  0
 33 24  1  0
 33 27  1  0
M  END
>  <shape_align_shape_tanimoto>  (3) 
0.50581741773833899

>  <shape_align_color_tanimoto>  (3) 
0.089128210492153859

>  <metric>  (3) 
combo

>  <metric_score>  (3) 
0.297

>  <template_pid>  (3) 
4QSH

>  <template_shape_score>  (3) 
0.506

>  <template_color_score>  (3) 
0.089

>  <template_combo_score>  (3) 
0.297

$$$$
