6MO0_shape_pose
     RDKit          3D

 33 37  0  0  0  0  0  0  0  0999 V2000
   79.5347  -50.8033  136.1526 N   0  0  0  0  0  0  0  0  0  0  0  0
   80.1669  -49.8671  137.0636 C   0  0  0  0  0  0  0  0  0  0  0  0
   81.6182  -49.7112  136.7449 C   0  0  0  0  0  0  0  0  0  0  0  0
   82.5312  -50.5353  137.3368 C   0  0  0  0  0  0  0  0  0  0  0  0
   83.8890  -50.4135  137.0531 C   0  0  0  0  0  0  0  0  0  0  0  0
   84.3336  -49.4520  136.1640 C   0  0  0  0  0  0  0  0  0  0  0  0
   85.7662  -49.3864  135.9085 C   0  0  0  0  0  0  0  0  0  0  0  0
   86.1737  -49.6616  134.6498 N   0  0  0  0  0  0  0  0  0  0  0  0
   87.4956  -49.6315  134.3225 C   0  0  0  0  0  0  0  0  0  0  0  0
   88.4324  -49.3095  135.3146 C   0  0  0  0  0  0  0  0  0  0  0  0
   89.7652  -49.2938  134.9267 O   0  0  0  0  0  0  0  0  0  0  0  0
   90.8578  -48.9999  135.7444 C   0  0  0  0  0  0  0  0  0  0  0  0
   91.0213  -49.9176  136.9329 C   0  0  0  0  0  0  0  0  0  0  0  0
   92.2473  -49.4430  137.6835 C   0  0  0  0  0  0  0  0  0  0  0  0
   93.0278  -50.6098  138.2772 C   0  0  0  0  0  0  0  0  0  0  0  0
   93.5760  -51.4489  137.2283 N   0  0  0  0  0  0  0  0  0  0  0  0
   92.6282  -51.6923  136.1734 C   0  0  0  0  0  0  0  0  0  0  0  0
   91.2211  -51.3427  136.5481 C   0  0  0  0  0  0  0  0  0  0  0  0
   88.0283  -49.0340  136.5731 N   0  0  0  0  0  0  0  0  0  0  0  0
   86.6951  -49.0706  136.8770 C   0  0  0  0  0  0  0  0  0  0  0  0
   86.2906  -48.7640  138.2304 C   0  0  0  0  0  0  0  0  0  0  0  0
   85.5599  -47.6113  138.4389 C   0  0  0  0  0  0  0  0  0  0  0  0
   85.1381  -47.2453  139.7021 C   0  0  0  0  0  0  0  0  0  0  0  0
   85.4571  -48.0594  140.7967 C   0  0  0  0  0  0  0  0  0  0  0  0
   85.0052  -47.6476  142.1218 C   0  0  0  0  0  0  0  0  0  0  0  0
   84.6505  -48.4192  143.2089 C   0  0  0  0  0  0  0  0  0  0  0  0
   84.3091  -47.5240  144.2000 C   0  0  0  0  0  0  0  0  0  0  0  0
   84.4474  -46.3029  143.7443 O   0  0  0  0  0  0  0  0  0  0  0  0
   84.8633  -46.3289  142.5007 C   0  0  0  0  0  0  0  0  0  0  0  0
   86.1941  -49.2294  140.6127 C   0  0  0  0  0  0  0  0  0  0  0  0
   86.5919  -49.5491  139.3253 C   0  0  0  0  0  0  0  0  0  0  0  0
   83.4149  -48.6165  135.5635 C   0  0  0  0  0  0  0  0  0  0  0  0
   82.0788  -48.7593  135.8625 C   0  0  0  0  0  0  0  0  0  0  0  0
  1  2  1  0
  2  3  1  0
  3  4  2  0
  4  5  1  0
  5  6  2  0
  6  7  1  0
  7  8  2  0
  8  9  1  0
  9 10  2  0
 10 11  1  0
 11 12  1  0
 12 13  1  0
 13 14  1  0
 14 15  1  0
 15 16  1  0
 16 17  1  0
 17 18  1  0
 10 19  1  0
 19 20  2  0
 20 21  1  0
 21 22  2  0
 22 23  1  0
 23 24  2  0
 24 25  1  0
 25 26  1  0
 26 27  2  0
 27 28  1  0
 28 29  1  0
 24 30  1  0
 30 31  2  0
  6 32  1  0
 32 33  2  0
 33  3  1  0
 20  7  1  0
 31 21  1  0
 18 13  1  0
 29 25  2  0
M  CHG  2   1   1  16   1
M  END
>  <shape_align_shape_tanimoto>  (1) 
0.5463760565573611

>  <shape_align_color_tanimoto>  (1) 
0.0043537211548770405

>  <metric>  (1) 
shape

>  <metric_score>  (1) 
0.546

>  <template_pid>  (1) 
6MO0

>  <template_shape_score>  (1) 
0.546

>  <template_color_score>  (1) 
0.004

>  <template_combo_score>  (1) 
0.275

$$$$
6MO0_color_pose
     RDKit          3D

 33 37  0  0  0  0  0  0  0  0999 V2000
   81.7041  -51.6064  132.9605 N   0  0  0  0  0  0  0  0  0  0  0  0
   82.9843  -50.9382  133.1246 C   0  0  0  0  0  0  0  0  0  0  0  0
   83.1761  -50.4530  134.5188 C   0  0  0  0  0  0  0  0  0  0  0  0
   83.7661  -51.2445  135.4835 C   0  0  0  0  0  0  0  0  0  0  0  0
   83.9024  -50.7071  136.7534 C   0  0  0  0  0  0  0  0  0  0  0  0
   83.4549  -49.4189  137.0213 C   0  0  0  0  0  0  0  0  0  0  0  0
   83.6038  -48.8678  138.3640 C   0  0  0  0  0  0  0  0  0  0  0  0
   82.5614  -48.4893  139.1261 N   0  0  0  0  0  0  0  0  0  0  0  0
   82.7322  -47.9763  140.3759 C   0  0  0  0  0  0  0  0  0  0  0  0
   84.0134  -47.8295  140.9015 C   0  0  0  0  0  0  0  0  0  0  0  0
   84.2109  -47.3057  142.1791 O   0  0  0  0  0  0  0  0  0  0  0  0
   85.5489  -47.1954  142.6266 C   0  0  0  0  0  0  0  0  0  0  0  0
   85.6657  -46.6175  144.0183 C   0  0  0  0  0  0  0  0  0  0  0  0
   85.0770  -45.2479  144.0691 C   0  0  0  0  0  0  0  0  0  0  0  0
   85.5716  -44.4507  145.2496 C   0  0  0  0  0  0  0  0  0  0  0  0
   87.0339  -44.4630  145.2562 N   0  0  0  0  0  0  0  0  0  0  0  0
   87.4034  -45.8270  145.6411 C   0  0  0  0  0  0  0  0  0  0  0  0
   87.0822  -46.7242  144.4794 C   0  0  0  0  0  0  0  0  0  0  0  0
   85.0290  -48.2189  140.1099 N   0  0  0  0  0  0  0  0  0  0  0  0
   84.8784  -48.7277  138.8732 C   0  0  0  0  0  0  0  0  0  0  0  0
   86.0796  -49.1061  138.1356 C   0  0  0  0  0  0  0  0  0  0  0  0
   86.9488  -50.0860  138.5864 C   0  0  0  0  0  0  0  0  0  0  0  0
   88.0696  -50.4036  137.8502 C   0  0  0  0  0  0  0  0  0  0  0  0
   88.3233  -49.7407  136.6603 C   0  0  0  0  0  0  0  0  0  0  0  0
   89.5172  -50.0754  135.8710 C   0  0  0  0  0  0  0  0  0  0  0  0
   89.6406  -50.0085  134.4822 C   0  0  0  0  0  0  0  0  0  0  0  0
   90.9406  -50.4193  134.2190 C   0  0  0  0  0  0  0  0  0  0  0  0
   91.5421  -50.7068  135.3503 O   0  0  0  0  0  0  0  0  0  0  0  0
   90.7275  -50.5156  136.3691 C   0  0  0  0  0  0  0  0  0  0  0  0
   87.4711  -48.7616  136.1927 C   0  0  0  0  0  0  0  0  0  0  0  0
   86.3534  -48.4608  136.9491 C   0  0  0  0  0  0  0  0  0  0  0  0
   82.8650  -48.6301  136.0533 C   0  0  0  0  0  0  0  0  0  0  0  0
   82.7298  -49.1662  134.7893 C   0  0  0  0  0  0  0  0  0  0  0  0
  1  2  1  0
  2  3  1  0
  3  4  2  0
  4  5  1  0
  5  6  2  0
  6  7  1  0
  7  8  2  0
  8  9  1  0
  9 10  2  0
 10 11  1  0
 11 12  1  0
 12 13  1  0
 13 14  1  0
 14 15  1  0
 15 16  1  0
 16 17  1  0
 17 18  1  0
 10 19  1  0
 19 20  2  0
 20 21  1  0
 21 22  2  0
 22 23  1  0
 23 24  2  0
 24 25  1  0
 25 26  1  0
 26 27  2  0
 27 28  1  0
 28 29  1  0
 24 30  1  0
 30 31  2  0
  6 32  1  0
 32 33  2  0
 33  3  1  0
 20  7  1  0
 31 21  1  0
 18 13  1  0
 29 25  2  0
M  CHG  2   1   1  16   1
M  END
>  <shape_align_shape_tanimoto>  (2) 
0.46317424023315956

>  <shape_align_color_tanimoto>  (2) 
0.080037863873368892

>  <metric>  (2) 
color

>  <metric_score>  (2) 
0.080

>  <template_pid>  (2) 
6MO0

>  <template_shape_score>  (2) 
0.463

>  <template_color_score>  (2) 
0.080

>  <template_combo_score>  (2) 
0.272

$$$$
6MO0_combo_pose
     RDKit          3D

 33 37  0  0  0  0  0  0  0  0999 V2000
   83.3684  -49.1238  132.7087 N   0  0  0  0  0  0  0  0  0  0  0  0
   82.2699  -49.6067  133.5268 C   0  0  0  0  0  0  0  0  0  0  0  0
   82.5250  -49.4020  134.9689 C   0  0  0  0  0  0  0  0  0  0  0  0
   82.1053  -48.2135  135.5296 C   0  0  0  0  0  0  0  0  0  0  0  0
   82.3174  -47.9677  136.8736 C   0  0  0  0  0  0  0  0  0  0  0  0
   82.9482  -48.8916  137.6890 C   0  0  0  0  0  0  0  0  0  0  0  0
   83.1712  -48.6214  139.1246 C   0  0  0  0  0  0  0  0  0  0  0  0
   82.0980  -48.4262  139.9139 N   0  0  0  0  0  0  0  0  0  0  0  0
   82.2348  -48.1752  141.2326 C   0  0  0  0  0  0  0  0  0  0  0  0
   83.5150  -48.1217  141.7644 C   0  0  0  0  0  0  0  0  0  0  0  0
   83.6654  -47.8698  143.0903 O   0  0  0  0  0  0  0  0  0  0  0  0
   84.8781  -47.7808  143.7907 C   0  0  0  0  0  0  0  0  0  0  0  0
   85.8103  -46.7020  143.2995 C   0  0  0  0  0  0  0  0  0  0  0  0
   87.0365  -46.7743  144.1734 C   0  0  0  0  0  0  0  0  0  0  0  0
   87.7760  -45.4665  144.1721 C   0  0  0  0  0  0  0  0  0  0  0  0
   86.8420  -44.5185  144.7893 N   0  0  0  0  0  0  0  0  0  0  0  0
   85.8401  -44.2160  143.8205 C   0  0  0  0  0  0  0  0  0  0  0  0
   85.2041  -45.3671  143.1420 C   0  0  0  0  0  0  0  0  0  0  0  0
   84.5825  -48.3175  140.9708 N   0  0  0  0  0  0  0  0  0  0  0  0
   84.4502  -48.5701  139.6445 C   0  0  0  0  0  0  0  0  0  0  0  0
   85.5855  -48.7833  138.7756 C   0  0  0  0  0  0  0  0  0  0  0  0
   85.9152  -47.9766  137.7108 C   0  0  0  0  0  0  0  0  0  0  0  0
   87.0287  -48.2384  136.9080 C   0  0  0  0  0  0  0  0  0  0  0  0
   87.8055  -49.3389  137.2065 C   0  0  0  0  0  0  0  0  0  0  0  0
   88.9900  -49.6961  136.4258 C   0  0  0  0  0  0  0  0  0  0  0  0
   90.1252  -50.3310  136.9285 C   0  0  0  0  0  0  0  0  0  0  0  0
   90.9765  -50.4647  135.8419 C   0  0  0  0  0  0  0  0  0  0  0  0
   90.3779  -49.9501  134.8083 O   0  0  0  0  0  0  0  0  0  0  0  0
   89.2026  -49.4778  135.0788 C   0  0  0  0  0  0  0  0  0  0  0  0
   87.4888  -50.1529  138.2658 C   0  0  0  0  0  0  0  0  0  0  0  0
   86.3863  -49.8965  139.0634 C   0  0  0  0  0  0  0  0  0  0  0  0
   83.3596  -50.0690  137.1155 C   0  0  0  0  0  0  0  0  0  0  0  0
   83.1542  -50.3271  135.7756 C   0  0  0  0  0  0  0  0  0  0  0  0
  1  2  1  0
  2  3  1  0
  3  4  2  0
  4  5  1  0
  5  6  2  0
  6  7  1  0
  7  8  2  0
  8  9  1  0
  9 10  2  0
 10 11  1  0
 11 12  1  0
 12 13  1  0
 13 14  1  0
 14 15  1  0
 15 16  1  0
 16 17  1  0
 17 18  1  0
 10 19  1  0
 19 20  2  0
 20 21  1  0
 21 22  2  0
 22 23  1  0
 23 24  2  0
 24 25  1  0
 25 26  1  0
 26 27  2  0
 27 28  1  0
 28 29  1  0
 24 30  1  0
 30 31  2  0
  6 32  1  0
 32 33  2  0
 33  3  1  0
 20  7  1  0
 31 21  1  0
 18 13  1  0
 29 25  2  0
M  CHG  2   1   1  16   1
M  END
>  <shape_align_shape_tanimoto>  (3) 
0.4946649160000508

>  <shape_align_color_tanimoto>  (3) 
0.072390753102013566

>  <metric>  (3) 
combo

>  <metric_score>  (3) 
0.284

>  <template_pid>  (3) 
6MO0

>  <template_shape_score>  (3) 
0.495

>  <template_color_score>  (3) 
0.072

>  <template_combo_score>  (3) 
0.284

$$$$
