4Y4G_shape_pose
     RDKit          3D

 12 11  0  0  0  0  0  0  0  0999 V2000
  -15.7020   65.2911   39.9382 N   0  0  0  0  0  0  0  0  0  0  0  0
  -17.0879   64.9533   39.7395 C   0  0  0  0  0  0  0  0  0  0  0  0
  -17.6130   64.1214   40.5839 N   0  0  0  0  0  0  0  0  0  0  0  0
  -17.8409   65.5069   38.6684 N   0  0  0  0  0  0  0  0  0  0  0  0
  -18.8041   64.7317   38.1225 O   0  0  0  0  0  0  0  0  0  0  0  0
  -18.9109   64.9591   36.7405 C   0  0  0  0  0  0  0  0  0  0  0  0
  -20.0119   64.0433   36.2396 C   0  0  0  0  0  0  0  0  0  0  0  0
  -19.5708   62.6359   36.5582 C   0  0  2  0  0  0  0  0  0  0  0  0
  -18.3247   62.2976   35.9155 N   0  0  0  0  0  0  0  0  0  0  0  0
  -20.6324   61.6310   36.2888 C   0  0  0  0  0  0  0  0  0  0  0  0
  -20.4737   60.8449   35.2997 O   0  0  0  0  0  0  0  0  0  0  0  0
  -21.7542   61.5720   37.1070 O   0  0  0  0  0  0  0  0  0  0  0  0
  1  2  1  0
  2  3  2  0
  2  4  1  0
  4  5  1  0
  5  6  1  0
  6  7  1  0
  7  8  1  0
  8  9  1  6
  8 10  1  0
 10 11  2  0
 10 12  1  0
M  CHG  3   3   1   9   1  12  -1
M  END
>  <shape_align_shape_tanimoto>  (1) 
0.28994895336033477

>  <shape_align_color_tanimoto>  (1) 
0.0012078827321429907

>  <metric>  (1) 
shape

>  <metric_score>  (1) 
0.290

>  <template_pid>  (1) 
4Y4G

>  <template_shape_score>  (1) 
0.290

>  <template_color_score>  (1) 
0.001

>  <template_combo_score>  (1) 
0.146

$$$$
4Y4G_color_pose
     RDKit          3D

 12 11  0  0  0  0  0  0  0  0999 V2000
  -20.0549   61.9349   40.2882 N   0  0  0  0  0  0  0  0  0  0  0  0
  -19.4275   63.0682   40.8772 C   0  0  0  0  0  0  0  0  0  0  0  0
  -20.0563   64.1822   40.9687 N   0  0  0  0  0  0  0  0  0  0  0  0
  -18.0953   62.9826   41.3727 N   0  0  0  0  0  0  0  0  0  0  0  0
  -17.2762   64.0503   41.3079 O   0  0  0  0  0  0  0  0  0  0  0  0
  -16.8555   64.3897   40.0467 C   0  0  0  0  0  0  0  0  0  0  0  0
  -15.9407   65.5891   40.0181 C   0  0  0  0  0  0  0  0  0  0  0  0
  -16.6700   66.7861   40.5934 C   0  0  2  0  0  0  0  0  0  0  0  0
  -17.8536   67.1106   39.8549 N   0  0  0  0  0  0  0  0  0  0  0  0
  -15.7464   67.9455   40.5841 C   0  0  0  0  0  0  0  0  0  0  0  0
  -15.9349   68.9583   41.3083 O   0  0  0  0  0  0  0  0  0  0  0  0
  -14.6307   67.9532   39.7678 O   0  0  0  0  0  0  0  0  0  0  0  0
  1  2  1  0
  2  3  2  0
  2  4  1  0
  4  5  1  0
  5  6  1  0
  6  7  1  0
  7  8  1  0
  8  9  1  6
  8 10  1  0
 10 11  2  0
 10 12  1  0
M  CHG  3   3   1   9   1  12  -1
M  END
>  <shape_align_shape_tanimoto>  (2) 
0.23893599299696935

>  <shape_align_color_tanimoto>  (2) 
0.064247673254362189

>  <metric>  (2) 
color

>  <metric_score>  (2) 
0.064

>  <template_pid>  (2) 
4Y4G

>  <template_shape_score>  (2) 
0.239

>  <template_color_score>  (2) 
0.064

>  <template_combo_score>  (2) 
0.152

$$$$
4Y4G_combo_pose
     RDKit          3D

 12 11  0  0  0  0  0  0  0  0999 V2000
  -15.6881   68.9885   43.0365 N   0  0  0  0  0  0  0  0  0  0  0  0
  -15.9970   68.6845   41.6614 C   0  0  0  0  0  0  0  0  0  0  0  0
  -16.9852   69.2518   41.0469 N   0  0  0  0  0  0  0  0  0  0  0  0
  -15.1892   67.7297   40.9566 N   0  0  0  0  0  0  0  0  0  0  0  0
  -15.7916   66.9261   40.0420 O   0  0  0  0  0  0  0  0  0  0  0  0
  -15.4782   65.6126   40.3522 C   0  0  0  0  0  0  0  0  0  0  0  0
  -16.0787   64.6054   39.4217 C   0  0  0  0  0  0  0  0  0  0  0  0
  -17.5663   64.6228   39.3663 C   0  0  2  0  0  0  0  0  0  0  0  0
  -18.1102   65.8900   38.9316 N   0  0  0  0  0  0  0  0  0  0  0  0
  -18.1608   64.1506   40.6239 C   0  0  0  0  0  0  0  0  0  0  0  0
  -17.5604   64.1005   41.7283 O   0  0  0  0  0  0  0  0  0  0  0  0
  -19.4966   63.7211   40.6047 O   0  0  0  0  0  0  0  0  0  0  0  0
  1  2  1  0
  2  3  2  0
  2  4  1  0
  4  5  1  0
  5  6  1  0
  6  7  1  0
  7  8  1  0
  8  9  1  1
  8 10  1  0
 10 11  2  0
 10 12  1  0
M  CHG  3   3   1   9   1  12  -1
M  END
>  <shape_align_shape_tanimoto>  (3) 
0.26316072415895453

>  <shape_align_color_tanimoto>  (3) 
0.048004586219832369

>  <metric>  (3) 
combo

>  <metric_score>  (3) 
0.156

>  <template_pid>  (3) 
4Y4G

>  <template_shape_score>  (3) 
0.263

>  <template_color_score>  (3) 
0.048

>  <template_combo_score>  (3) 
0.156

$$$$
