4PXM_shape_pose
     RDKit          3D

 20 23  0  0  0  0  0  0  0  0999 V2000
   24.0885   55.9998   36.0048 C   0  0  0  0  0  0  0  0  0  0  0  0
   24.7572   55.6573   34.7097 C   0  0  2  0  0  0  0  0  0  0  0  0
   25.9524   56.5170   34.4606 C   0  0  0  0  0  0  0  0  0  0  0  0
   25.5664   57.8515   33.8623 C   0  0  0  0  0  0  0  0  0  0  0  0
   24.7276   57.5871   32.6212 C   0  0  2  0  0  0  0  0  0  0  0  0
   24.4753   58.8211   31.8448 C   0  0  0  0  0  0  0  0  0  0  0  0
   25.5718   59.4641   31.3076 C   0  0  0  0  0  0  0  0  0  0  0  0
   25.4237   60.6333   30.5620 C   0  0  0  0  0  0  0  0  0  0  0  0
   24.1512   61.1315   30.3750 C   0  0  0  0  0  0  0  0  0  0  0  0
   24.0390   62.3055   29.6226 O   0  0  0  0  0  0  0  0  0  0  0  0
   23.0324   60.4977   30.9088 C   0  0  0  0  0  0  0  0  0  0  0  0
   23.1960   59.3292   31.6521 C   0  0  0  0  0  0  0  0  0  0  0  0
   21.9930   58.6538   32.2220 C   0  0  0  0  0  0  0  0  0  0  0  0
   22.3192   57.1530   32.1917 C   0  0  0  0  0  0  0  0  0  0  0  0
   23.4415   56.9863   33.1601 C   0  0  1  0  0  0  0  0  0  0  0  0
   23.8160   55.6210   33.5385 C   0  0  2  0  0  0  0  0  0  0  0  0
   22.8010   54.6654   33.9979 C   0  0  0  0  0  0  0  0  0  0  0  0
   23.7144   53.5283   34.4837 C   0  0  0  0  0  0  0  0  0  0  0  0
   25.0720   54.1826   34.7657 C   0  0  2  0  0  0  0  0  0  0  0  0
   25.4822   53.7494   36.0065 O   0  0  0  0  0  0  0  0  0  0  0  0
  2  1  1  1
  2  3  1  0
  3  4  1  0
  5  4  1  1
  5  6  1  0
  6  7  2  0
  7  8  1  0
  8  9  2  0
  9 10  1  0
  9 11  1  0
 11 12  2  0
 12 13  1  0
 13 14  1  0
 15 14  1  6
 15 16  1  0
 16 17  1  1
 17 18  1  0
 18 19  1  0
 19 20  1  1
 16  2  1  0
 19  2  1  0
 15  5  1  0
 12  6  1  0
M  END
>  <shape_align_shape_tanimoto>  (1) 
0.2168373515819855

>  <shape_align_color_tanimoto>  (1) 
0.018036895424648192

>  <metric>  (1) 
shape

>  <metric_score>  (1) 
0.217

>  <template_pid>  (1) 
4PXM

>  <template_shape_score>  (1) 
0.217

>  <template_color_score>  (1) 
0.018

>  <template_combo_score>  (1) 
0.117

$$$$
4PXM_color_pose
     RDKit          3D

 20 23  0  0  0  0  0  0  0  0999 V2000
   24.2723   61.3960   32.0888 C   0  0  0  0  0  0  0  0  0  0  0  0
   23.8288   60.4801   30.9951 C   0  0  2  0  0  0  0  0  0  0  0  0
   22.5598   59.7587   31.3362 C   0  0  0  0  0  0  0  0  0  0  0  0
   22.7646   58.6913   32.3586 C   0  0  0  0  0  0  0  0  0  0  0  0
   23.8328   57.7186   31.8781 C   0  0  2  0  0  0  0  0  0  0  0  0
   23.9977   56.5850   32.8156 C   0  0  0  0  0  0  0  0  0  0  0  0
   22.8726   55.8456   33.1162 C   0  0  0  0  0  0  0  0  0  0  0  0
   22.9205   54.7863   33.9654 C   0  0  0  0  0  0  0  0  0  0  0  0
   24.1170   54.4341   34.5456 C   0  0  0  0  0  0  0  0  0  0  0  0
   24.1590   53.3404   35.4205 O   0  0  0  0  0  0  0  0  0  0  0  0
   25.2607   55.1675   34.2544 C   0  0  0  0  0  0  0  0  0  0  0  0
   25.2260   56.2561   33.3853 C   0  0  0  0  0  0  0  0  0  0  0  0
   26.4538   57.0440   33.0723 C   0  0  0  0  0  0  0  0  0  0  0  0
   26.2494   57.6141   31.6659 C   0  0  0  0  0  0  0  0  0  0  0  0
   25.0961   58.5528   31.7766 C   0  0  1  0  0  0  0  0  0  0  0  0
   24.8599   59.4346   30.6129 C   0  0  2  0  0  0  0  0  0  0  0  0
   25.9646   60.2858   30.1309 C   0  0  0  0  0  0  0  0  0  0  0  0
   25.1926   61.1636   29.1337 C   0  0  0  0  0  0  0  0  0  0  0  0
   23.7595   61.2103   29.6769 C   0  0  2  0  0  0  0  0  0  0  0  0
   23.4394   62.5467   29.8116 O   0  0  0  0  0  0  0  0  0  0  0  0
  2  1  1  1
  2  3  1  0
  3  4  1  0
  5  4  1  1
  5  6  1  0
  6  7  2  0
  7  8  1  0
  8  9  2  0
  9 10  1  0
  9 11  1  0
 11 12  2  0
 12 13  1  0
 13 14  1  0
 15 14  1  6
 15 16  1  0
 16 17  1  1
 17 18  1  0
 18 19  1  0
 19 20  1  1
 16  2  1  0
 19  2  1  0
 15  5  1  0
 12  6  1  0
M  END
>  <shape_align_shape_tanimoto>  (2) 
0.19490488156560451

>  <shape_align_color_tanimoto>  (2) 
0.049338636906945781

>  <metric>  (2) 
color

>  <metric_score>  (2) 
0.049

>  <template_pid>  (2) 
4PXM

>  <template_shape_score>  (2) 
0.195

>  <template_color_score>  (2) 
0.049

>  <template_combo_score>  (2) 
0.122

$$$$
4PXM_combo_pose
     RDKit          3D

 20 23  0  0  0  0  0  0  0  0999 V2000
   24.2723   61.3960   32.0888 C   0  0  0  0  0  0  0  0  0  0  0  0
   23.8288   60.4801   30.9951 C   0  0  2  0  0  0  0  0  0  0  0  0
   22.5598   59.7587   31.3362 C   0  0  0  0  0  0  0  0  0  0  0  0
   22.7646   58.6913   32.3586 C   0  0  0  0  0  0  0  0  0  0  0  0
   23.8328   57.7186   31.8781 C   0  0  2  0  0  0  0  0  0  0  0  0
   23.9977   56.5850   32.8156 C   0  0  0  0  0  0  0  0  0  0  0  0
   22.8726   55.8456   33.1162 C   0  0  0  0  0  0  0  0  0  0  0  0
   22.9205   54.7863   33.9654 C   0  0  0  0  0  0  0  0  0  0  0  0
   24.1170   54.4341   34.5456 C   0  0  0  0  0  0  0  0  0  0  0  0
   24.1590   53.3404   35.4205 O   0  0  0  0  0  0  0  0  0  0  0  0
   25.2607   55.1675   34.2544 C   0  0  0  0  0  0  0  0  0  0  0  0
   25.2260   56.2561   33.3853 C   0  0  0  0  0  0  0  0  0  0  0  0
   26.4538   57.0440   33.0723 C   0  0  0  0  0  0  0  0  0  0  0  0
   26.2494   57.6141   31.6659 C   0  0  0  0  0  0  0  0  0  0  0  0
   25.0961   58.5528   31.7766 C   0  0  1  0  0  0  0  0  0  0  0  0
   24.8599   59.4346   30.6129 C   0  0  2  0  0  0  0  0  0  0  0  0
   25.9646   60.2858   30.1309 C   0  0  0  0  0  0  0  0  0  0  0  0
   25.1926   61.1636   29.1337 C   0  0  0  0  0  0  0  0  0  0  0  0
   23.7595   61.2103   29.6769 C   0  0  2  0  0  0  0  0  0  0  0  0
   23.4394   62.5467   29.8116 O   0  0  0  0  0  0  0  0  0  0  0  0
  2  1  1  1
  2  3  1  0
  3  4  1  0
  5  4  1  1
  5  6  1  0
  6  7  2  0
  7  8  1  0
  8  9  2  0
  9 10  1  0
  9 11  1  0
 11 12  2  0
 12 13  1  0
 13 14  1  0
 15 14  1  6
 15 16  1  0
 16 17  1  1
 17 18  1  0
 18 19  1  0
 19 20  1  1
 16  2  1  0
 19  2  1  0
 15  5  1  0
 12  6  1  0
M  END
>  <shape_align_shape_tanimoto>  (3) 
0.19490488156560451

>  <shape_align_color_tanimoto>  (3) 
0.049338636906945781

>  <metric>  (3) 
combo

>  <metric_score>  (3) 
0.122

>  <template_pid>  (3) 
4PXM

>  <template_shape_score>  (3) 
0.195

>  <template_color_score>  (3) 
0.049

>  <template_combo_score>  (3) 
0.122

$$$$
