2POU_shape_pose
     RDKit          3D

 16 16  0  0  0  0  0  0  0  0999 V2000
   -5.7990    1.4170   18.4855 N   0  0  0  0  0  0  0  0  0  0  0  0
   -5.7212    1.0915   16.7754 S   0  0  0  0  0  0  0  0  0  0  0  0
   -4.8235   -0.0597   16.5281 O   0  0  0  0  0  0  0  0  0  0  0  0
   -7.1590    0.8214   16.3754 O   0  0  0  0  0  0  0  0  0  0  0  0
   -5.1596    2.5258   15.9200 C   0  0  0  0  0  0  0  0  0  0  0  0
   -6.0839    3.4464   15.4705 C   0  0  0  0  0  0  0  0  0  0  0  0
   -5.6139    4.5583   14.8046 C   0  0  0  0  0  0  0  0  0  0  0  0
   -6.7673    5.7358   14.2274 Cl  0  0  0  0  0  0  0  0  0  0  0  0
   -4.2663    4.7792   14.5752 C   0  0  0  0  0  0  0  0  0  0  0  0
   -3.7186    6.2068   13.7246 Cl  0  0  0  0  0  0  0  0  0  0  0  0
   -3.3859    3.8171   15.0516 C   0  0  0  0  0  0  0  0  0  0  0  0
   -1.6735    4.1302   14.7417 S   0  0  0  0  0  0  0  0  0  0  0  0
   -0.7546    2.8487   15.3960 N   0  0  0  0  0  0  0  0  0  0  0  0
   -1.3488    5.4107   15.4953 O   0  0  0  0  0  0  0  0  0  0  0  0
   -1.4178    4.3986   13.3027 O   0  0  0  0  0  0  0  0  0  0  0  0
   -3.7953    2.6920   15.7203 C   0  0  0  0  0  0  0  0  0  0  0  0
  1  2  1  0
  2  3  2  0
  2  4  2  0
  2  5  1  0
  5  6  2  0
  6  7  1  0
  7  8  1  0
  7  9  2  0
  9 10  1  0
  9 11  1  0
 11 12  1  0
 12 13  1  0
 12 14  2  0
 12 15  2  0
 11 16  2  0
 16  5  1  0
M  END
>  <shape_align_shape_tanimoto>  (1) 
0.70356377364263867

>  <shape_align_color_tanimoto>  (1) 
0.099433611745302367

>  <metric>  (1) 
shape

>  <metric_score>  (1) 
0.704

>  <template_pid>  (1) 
2POU

>  <template_shape_score>  (1) 
0.704

>  <template_color_score>  (1) 
0.099

>  <template_combo_score>  (1) 
0.401

$$$$
2POU_color_pose
     RDKit          3D

 16 16  0  0  0  0  0  0  0  0999 V2000
   -5.7990    1.4170   18.4855 N   0  0  0  0  0  0  0  0  0  0  0  0
   -5.7212    1.0915   16.7754 S   0  0  0  0  0  0  0  0  0  0  0  0
   -4.8235   -0.0597   16.5281 O   0  0  0  0  0  0  0  0  0  0  0  0
   -7.1590    0.8214   16.3754 O   0  0  0  0  0  0  0  0  0  0  0  0
   -5.1596    2.5258   15.9200 C   0  0  0  0  0  0  0  0  0  0  0  0
   -6.0839    3.4464   15.4705 C   0  0  0  0  0  0  0  0  0  0  0  0
   -5.6139    4.5583   14.8046 C   0  0  0  0  0  0  0  0  0  0  0  0
   -6.7673    5.7358   14.2274 Cl  0  0  0  0  0  0  0  0  0  0  0  0
   -4.2663    4.7792   14.5752 C   0  0  0  0  0  0  0  0  0  0  0  0
   -3.7186    6.2068   13.7246 Cl  0  0  0  0  0  0  0  0  0  0  0  0
   -3.3859    3.8171   15.0516 C   0  0  0  0  0  0  0  0  0  0  0  0
   -1.6735    4.1302   14.7417 S   0  0  0  0  0  0  0  0  0  0  0  0
   -0.7546    2.8487   15.3960 N   0  0  0  0  0  0  0  0  0  0  0  0
   -1.3488    5.4107   15.4953 O   0  0  0  0  0  0  0  0  0  0  0  0
   -1.4178    4.3986   13.3027 O   0  0  0  0  0  0  0  0  0  0  0  0
   -3.7953    2.6920   15.7203 C   0  0  0  0  0  0  0  0  0  0  0  0
  1  2  1  0
  2  3  2  0
  2  4  2  0
  2  5  1  0
  5  6  2  0
  6  7  1  0
  7  8  1  0
  7  9  2  0
  9 10  1  0
  9 11  1  0
 11 12  1  0
 12 13  1  0
 12 14  2  0
 12 15  2  0
 11 16  2  0
 16  5  1  0
M  END
>  <shape_align_shape_tanimoto>  (2) 
0.70356377364263867

>  <shape_align_color_tanimoto>  (2) 
0.099433611745302367

>  <metric>  (2) 
color

>  <metric_score>  (2) 
0.099

>  <template_pid>  (2) 
2POU

>  <template_shape_score>  (2) 
0.704

>  <template_color_score>  (2) 
0.099

>  <template_combo_score>  (2) 
0.401

$$$$
2POU_combo_pose
     RDKit          3D

 16 16  0  0  0  0  0  0  0  0999 V2000
   -5.7990    1.4170   18.4855 N   0  0  0  0  0  0  0  0  0  0  0  0
   -5.7212    1.0915   16.7754 S   0  0  0  0  0  0  0  0  0  0  0  0
   -4.8235   -0.0597   16.5281 O   0  0  0  0  0  0  0  0  0  0  0  0
   -7.1590    0.8214   16.3754 O   0  0  0  0  0  0  0  0  0  0  0  0
   -5.1596    2.5258   15.9200 C   0  0  0  0  0  0  0  0  0  0  0  0
   -6.0839    3.4464   15.4705 C   0  0  0  0  0  0  0  0  0  0  0  0
   -5.6139    4.5583   14.8046 C   0  0  0  0  0  0  0  0  0  0  0  0
   -6.7673    5.7358   14.2274 Cl  0  0  0  0  0  0  0  0  0  0  0  0
   -4.2663    4.7792   14.5752 C   0  0  0  0  0  0  0  0  0  0  0  0
   -3.7186    6.2068   13.7246 Cl  0  0  0  0  0  0  0  0  0  0  0  0
   -3.3859    3.8171   15.0516 C   0  0  0  0  0  0  0  0  0  0  0  0
   -1.6735    4.1302   14.7417 S   0  0  0  0  0  0  0  0  0  0  0  0
   -0.7546    2.8487   15.3960 N   0  0  0  0  0  0  0  0  0  0  0  0
   -1.3488    5.4107   15.4953 O   0  0  0  0  0  0  0  0  0  0  0  0
   -1.4178    4.3986   13.3027 O   0  0  0  0  0  0  0  0  0  0  0  0
   -3.7953    2.6920   15.7203 C   0  0  0  0  0  0  0  0  0  0  0  0
  1  2  1  0
  2  3  2  0
  2  4  2  0
  2  5  1  0
  5  6  2  0
  6  7  1  0
  7  8  1  0
  7  9  2  0
  9 10  1  0
  9 11  1  0
 11 12  1  0
 12 13  1  0
 12 14  2  0
 12 15  2  0
 11 16  2  0
 16  5  1  0
M  END
>  <shape_align_shape_tanimoto>  (3) 
0.70356377364263867

>  <shape_align_color_tanimoto>  (3) 
0.099433611745302367

>  <metric>  (3) 
combo

>  <metric_score>  (3) 
0.401

>  <template_pid>  (3) 
2POU

>  <template_shape_score>  (3) 
0.704

>  <template_color_score>  (3) 
0.099

>  <template_combo_score>  (3) 
0.401

$$$$
