5V82_shape_pose
     RDKit          3D

 30 34  0  0  0  0  0  0  0  0999 V2000
   11.3358   -4.8840   14.9875 C   0  0  0  0  0  0  0  0  0  0  0  0
    9.9434   -5.2374   15.3767 C   0  0  0  0  0  0  0  0  0  0  0  0
    9.3127   -6.3831   14.9371 C   0  0  0  0  0  0  0  0  0  0  0  0
    8.0338   -6.6344   15.3403 N   0  0  0  0  0  0  0  0  0  0  0  0
    7.3990   -5.7644   16.1619 C   0  0  0  0  0  0  0  0  0  0  0  0
    8.0214   -4.6180   16.6056 C   0  0  0  0  0  0  0  0  0  0  0  0
    7.3844   -3.6480   17.4908 C   0  0  0  0  0  0  0  0  0  0  0  0
    6.0993   -3.7872   17.9670 C   0  0  0  0  0  0  0  0  0  0  0  0
    5.5044   -2.8559   18.8097 C   0  0  0  0  0  0  0  0  0  0  0  0
    6.2224   -1.7444   19.1897 C   0  0  0  0  0  0  0  0  0  0  0  0
    7.5052   -1.6311   18.6984 C   0  0  0  0  0  0  0  0  0  0  0  0
    8.0577   -2.5427   17.8866 N   0  0  0  0  0  0  0  0  0  0  0  0
    5.4013   -1.0029   20.0131 C   0  0  0  0  0  0  0  0  0  0  0  0
    4.2479   -1.6855   20.0919 N   0  0  0  0  0  0  0  0  0  0  0  0
    4.2858   -2.7978   19.3801 N   0  0  0  0  0  0  0  0  0  0  0  0
    3.2117   -3.7210   19.2736 C   0  0  0  0  0  0  0  0  0  0  0  0
    2.2875   -3.7949   20.3093 C   0  0  0  0  0  0  0  0  0  0  0  0
    1.2147   -4.6612   20.2881 C   0  0  0  0  0  0  0  0  0  0  0  0
    1.1013   -5.4707   19.1606 C   0  0  0  0  0  0  0  0  0  0  0  0
    2.0095   -5.4131   18.1193 C   0  0  0  0  0  0  0  0  0  0  0  0
    1.8166   -6.3075   16.9557 C   0  0  1  0  0  0  0  0  0  0  0  0
    1.6170   -5.6121   15.6549 C   0  0  0  0  0  0  0  0  0  0  0  0
    2.8504   -5.3694   14.9355 N   0  0  0  0  0  0  0  0  0  0  0  0
    3.6139   -6.5539   14.6714 C   0  0  0  0  0  0  0  0  0  0  0  0
    3.1761   -7.7594   15.4725 C   0  0  0  0  0  0  0  0  0  0  0  0
    2.9044   -7.3677   16.8977 C   0  0  0  0  0  0  0  0  0  0  0  0
    4.0565   -6.8926   17.4855 F   0  0  0  0  0  0  0  0  0  0  0  0
    2.5545   -8.5232   17.5768 F   0  0  0  0  0  0  0  0  0  0  0  0
    3.0334   -4.5359   18.2186 N   0  0  0  0  0  0  0  0  0  0  0  0
    9.2809   -4.3985   16.1911 N   0  0  0  0  0  0  0  0  0  0  0  0
  1  2  1  0
  2  3  2  0
  3  4  1  0
  4  5  2  0
  5  6  1  0
  6  7  1  0
  7  8  2  0
  8  9  1  0
  9 10  2  0
 10 11  1  0
 11 12  2  0
 10 13  1  0
 13 14  2  0
 14 15  1  0
 15 16  1  0
 16 17  2  0
 17 18  1  0
 18 19  2  0
 19 20  1  0
 21 20  1  1
 21 22  1  0
 22 23  1  0
 23 24  1  0
 24 25  1  0
 25 26  1  0
 26 27  1  0
 26 28  1  0
 20 29  2  0
  6 30  2  0
 30  2  1  0
 12  7  1  0
 29 16  1  0
 15  9  1  0
 26 21  1  0
M  CHG  1  23   1
M  END
>  <shape_align_shape_tanimoto>  (1) 
0.67022131095862003

>  <shape_align_color_tanimoto>  (1) 
0.10635963087700236

>  <metric>  (1) 
shape

>  <metric_score>  (1) 
0.670

>  <template_pid>  (1) 
5V82

>  <template_shape_score>  (1) 
0.670

>  <template_color_score>  (1) 
0.106

>  <template_combo_score>  (1) 
0.388

$$$$
5V82_color_pose
     RDKit          3D

 30 34  0  0  0  0  0  0  0  0999 V2000
   11.6306   -4.8544   15.1481 C   0  0  0  0  0  0  0  0  0  0  0  0
   10.1797   -5.1040   15.3721 C   0  0  0  0  0  0  0  0  0  0  0  0
    9.4893   -6.0941   14.6897 C   0  0  0  0  0  0  0  0  0  0  0  0
    8.1764   -6.3289   14.8843 N   0  0  0  0  0  0  0  0  0  0  0  0
    7.5420   -5.5510   15.7854 C   0  0  0  0  0  0  0  0  0  0  0  0
    8.1731   -4.5525   16.4937 C   0  0  0  0  0  0  0  0  0  0  0  0
    7.5034   -3.7043   17.4693 C   0  0  0  0  0  0  0  0  0  0  0  0
    6.1654   -3.8152   17.7835 C   0  0  0  0  0  0  0  0  0  0  0  0
    5.5340   -3.0093   18.7088 C   0  0  0  0  0  0  0  0  0  0  0  0
    6.2584   -2.0356   19.3659 C   0  0  0  0  0  0  0  0  0  0  0  0
    7.5965   -1.9356   19.0418 C   0  0  0  0  0  0  0  0  0  0  0  0
    8.1870   -2.7355   18.1345 N   0  0  0  0  0  0  0  0  0  0  0  0
    5.4249   -1.3613   20.2346 C   0  0  0  0  0  0  0  0  0  0  0  0
    4.2134   -1.9301   20.0950 N   0  0  0  0  0  0  0  0  0  0  0  0
    4.2719   -2.9099   19.1898 N   0  0  0  0  0  0  0  0  0  0  0  0
    3.1916   -3.7454   18.7681 C   0  0  0  0  0  0  0  0  0  0  0  0
    1.9240   -3.2070   18.8739 C   0  0  0  0  0  0  0  0  0  0  0  0
    0.8698   -4.0150   18.4652 C   0  0  0  0  0  0  0  0  0  0  0  0
    1.1270   -5.2836   17.9851 C   0  0  0  0  0  0  0  0  0  0  0  0
    2.3987   -5.8108   17.8840 C   0  0  0  0  0  0  0  0  0  0  0  0
    2.6659   -7.1780   17.3655 C   0  0  1  0  0  0  0  0  0  0  0  0
    1.9434   -8.1514   18.2728 C   0  0  0  0  0  0  0  0  0  0  0  0
    2.1736   -9.5266   17.8727 N   0  0  0  0  0  0  0  0  0  0  0  0
    3.0777   -9.5872   16.7530 C   0  0  0  0  0  0  0  0  0  0  0  0
    2.6255   -8.7930   15.5681 C   0  0  0  0  0  0  0  0  0  0  0  0
    2.1220   -7.4073   15.9762 C   0  0  0  0  0  0  0  0  0  0  0  0
    2.6146   -6.5276   15.0565 F   0  0  0  0  0  0  0  0  0  0  0  0
    0.7503   -7.4042   16.0428 F   0  0  0  0  0  0  0  0  0  0  0  0
    3.4069   -4.9868   18.2952 N   0  0  0  0  0  0  0  0  0  0  0  0
    9.4835   -4.3595   16.2621 N   0  0  0  0  0  0  0  0  0  0  0  0
  1  2  1  0
  2  3  2  0
  3  4  1  0
  4  5  2  0
  5  6  1  0
  6  7  1  0
  7  8  2  0
  8  9  1  0
  9 10  2  0
 10 11  1  0
 11 12  2  0
 10 13  1  0
 13 14  2  0
 14 15  1  0
 15 16  1  0
 16 17  2  0
 17 18  1  0
 18 19  2  0
 19 20  1  0
 21 20  1  1
 21 22  1  0
 22 23  1  0
 23 24  1  0
 24 25  1  0
 25 26  1  0
 26 27  1  0
 26 28  1  0
 20 29  2  0
  6 30  2  0
 30  2  1  0
 12  7  1  0
 29 16  1  0
 15  9  1  0
 26 21  1  0
M  CHG  1  23   1
M  END
>  <shape_align_shape_tanimoto>  (2) 
0.63871208085817122

>  <shape_align_color_tanimoto>  (2) 
0.14107104888440955

>  <metric>  (2) 
color

>  <metric_score>  (2) 
0.141

>  <template_pid>  (2) 
5V82

>  <template_shape_score>  (2) 
0.639

>  <template_color_score>  (2) 
0.141

>  <template_combo_score>  (2) 
0.390

$$$$
5V82_combo_pose
     RDKit          3D

 30 34  0  0  0  0  0  0  0  0999 V2000
   11.4095   -4.9746   15.1558 C   0  0  0  0  0  0  0  0  0  0  0  0
    9.9513   -5.1396   15.3942 C   0  0  0  0  0  0  0  0  0  0  0  0
    9.2244   -6.0801   14.6802 C   0  0  0  0  0  0  0  0  0  0  0  0
    7.9013   -6.2347   14.8917 N   0  0  0  0  0  0  0  0  0  0  0  0
    7.3167   -5.4491   15.8139 C   0  0  0  0  0  0  0  0  0  0  0  0
    7.9987   -4.5017   16.5469 C   0  0  0  0  0  0  0  0  0  0  0  0
    7.3675   -3.6494   17.5466 C   0  0  0  0  0  0  0  0  0  0  0  0
    6.0261   -3.7070   17.8573 C   0  0  0  0  0  0  0  0  0  0  0  0
    5.4393   -2.8879   18.8126 C   0  0  0  0  0  0  0  0  0  0  0  0
    6.2129   -1.9759   19.4862 C   0  0  0  0  0  0  0  0  0  0  0  0
    7.5534   -1.9277   19.1666 C   0  0  0  0  0  0  0  0  0  0  0  0
    8.0963   -2.7329   18.2368 N   0  0  0  0  0  0  0  0  0  0  0  0
    5.3720   -1.3146   20.3579 C   0  0  0  0  0  0  0  0  0  0  0  0
    4.1500   -1.8303   20.1913 N   0  0  0  0  0  0  0  0  0  0  0  0
    4.1553   -2.7795   19.2687 N   0  0  0  0  0  0  0  0  0  0  0  0
    3.0380   -3.5535   18.8230 C   0  0  0  0  0  0  0  0  0  0  0  0
    1.7648   -3.0780   18.7422 C   0  0  0  0  0  0  0  0  0  0  0  0
    0.7858   -3.9631   18.2866 C   0  0  0  0  0  0  0  0  0  0  0  0
    1.0881   -5.2644   17.9319 C   0  0  0  0  0  0  0  0  0  0  0  0
    2.4036   -5.7100   18.0297 C   0  0  0  0  0  0  0  0  0  0  0  0
    2.7921   -7.0956   17.6640 C   0  0  1  0  0  0  0  0  0  0  0  0
    2.1505   -8.0897   18.6094 C   0  0  0  0  0  0  0  0  0  0  0  0
    1.7657   -9.2995   17.9352 N   0  0  0  0  0  0  0  0  0  0  0  0
    2.7682   -9.7954   17.0215 C   0  0  0  0  0  0  0  0  0  0  0  0
    3.1777   -8.7925   15.9849 C   0  0  0  0  0  0  0  0  0  0  0  0
    2.5361   -7.4343   16.2245 C   0  0  0  0  0  0  0  0  0  0  0  0
    3.2193   -6.5114   15.4550 F   0  0  0  0  0  0  0  0  0  0  0  0
    1.2206   -7.4079   15.8775 F   0  0  0  0  0  0  0  0  0  0  0  0
    3.3018   -4.8263   18.4703 N   0  0  0  0  0  0  0  0  0  0  0  0
    9.3072   -4.3703   16.3169 N   0  0  0  0  0  0  0  0  0  0  0  0
  1  2  1  0
  2  3  2  0
  3  4  1  0
  4  5  2  0
  5  6  1  0
  6  7  1  0
  7  8  2  0
  8  9  1  0
  9 10  2  0
 10 11  1  0
 11 12  2  0
 10 13  1  0
 13 14  2  0
 14 15  1  0
 15 16  1  0
 16 17  2  0
 17 18  1  0
 18 19  2  0
 19 20  1  0
 21 20  1  1
 21 22  1  0
 22 23  1  0
 23 24  1  0
 24 25  1  0
 25 26  1  0
 26 27  1  0
 26 28  1  0
 20 29  2  0
  6 30  2  0
 30  2  1  0
 12  7  1  0
 29 16  1  0
 15  9  1  0
 26 21  1  0
M  CHG  1  23   1
M  END
>  <shape_align_shape_tanimoto>  (3) 
0.65386083284873386

>  <shape_align_color_tanimoto>  (3) 
0.13904260665099086

>  <metric>  (3) 
combo

>  <metric_score>  (3) 
0.396

>  <template_pid>  (3) 
5V82

>  <template_shape_score>  (3) 
0.654

>  <template_color_score>  (3) 
0.139

>  <template_combo_score>  (3) 
0.396

$$$$
