6D1X_shape_pose
     RDKit          3D

 23 25  0  0  0  0  0  0  0  0999 V2000
   -1.7475   37.0555   20.5046 C   0  0  0  0  0  0  0  0  0  0  0  0
   -2.8111   36.6181   21.4893 C   0  0  0  0  0  0  0  0  0  0  0  0
   -2.3005   35.4495   22.3206 C   0  0  0  0  0  0  0  0  0  0  0  0
   -1.1275   35.7880   23.0646 N   0  0  0  0  0  0  0  0  0  0  0  0
   -0.4559   34.8577   23.9240 C   0  0  0  0  0  0  0  0  0  0  0  0
   -0.9267   33.7161   24.0132 O   0  0  0  0  0  0  0  0  0  0  0  0
    0.7452   35.3516   24.6291 C   0  0  1  0  0  0  0  0  0  0  0  0
    1.3394   34.4178   25.4322 O   0  0  0  0  0  0  0  0  0  0  0  0
    2.6732   34.7309   25.5774 C   0  0  1  0  0  0  0  0  0  0  0  0
    3.4639   33.5696   25.2087 N   0  0  0  0  0  0  0  0  0  0  0  0
    3.0166   32.3084   25.0344 C   0  0  0  0  0  0  0  0  0  0  0  0
    4.0036   31.4815   24.6986 N   0  0  0  0  0  0  0  0  0  0  0  0
    5.1276   32.2194   24.6512 C   0  0  0  0  0  0  0  0  0  0  0  0
    6.4336   31.8362   24.3487 C   0  0  0  0  0  0  0  0  0  0  0  0
    6.7601   30.4908   24.0236 N   0  0  0  0  0  0  0  0  0  0  0  0
    7.3517   32.8266   24.3874 N   0  0  0  0  0  0  0  0  0  0  0  0
    7.0172   34.0929   24.6980 C   0  0  0  0  0  0  0  0  0  0  0  0
    5.7606   34.4747   24.9917 N   0  0  0  0  0  0  0  0  0  0  0  0
    4.8071   33.5256   24.9674 C   0  0  0  0  0  0  0  0  0  0  0  0
    2.9901   35.8723   24.6331 C   0  0  2  0  0  0  0  0  0  0  0  0
    2.7863   37.0935   25.2918 O   0  0  0  0  0  0  0  0  0  0  0  0
    1.8579   35.7106   23.6366 C   0  0  2  0  0  0  0  0  0  0  0  0
    1.5899   36.8837   22.9543 O   0  0  0  0  0  0  0  0  0  0  0  0
  1  2  1  0
  2  3  1  0
  3  4  1  0
  4  5  1  0
  5  6  2  0
  7  5  1  6
  7  8  1  0
  8  9  1  0
  9 10  1  6
 10 11  1  0
 11 12  2  0
 12 13  1  0
 13 14  2  0
 14 15  1  0
 14 16  1  0
 16 17  2  0
 17 18  1  0
 18 19  2  0
  9 20  1  0
 20 21  1  1
 20 22  1  0
 22 23  1  1
 22  7  1  0
 19 10  1  0
 19 13  1  0
M  END
>  <shape_align_shape_tanimoto>  (1) 
0.67031198840138539

>  <shape_align_color_tanimoto>  (1) 
0.072928160744878442

>  <metric>  (1) 
shape

>  <metric_score>  (1) 
0.670

>  <template_pid>  (1) 
6D1X

>  <template_shape_score>  (1) 
0.670

>  <template_color_score>  (1) 
0.073

>  <template_combo_score>  (1) 
0.372

$$$$
6D1X_color_pose
     RDKit          3D

 23 25  0  0  0  0  0  0  0  0999 V2000
   -2.7221   31.7890   23.8041 C   0  0  0  0  0  0  0  0  0  0  0  0
   -2.0845   31.3126   25.0539 C   0  0  0  0  0  0  0  0  0  0  0  0
   -1.7598   32.2933   26.1089 C   0  0  0  0  0  0  0  0  0  0  0  0
   -0.8389   33.3406   25.8226 N   0  0  0  0  0  0  0  0  0  0  0  0
   -0.9610   34.3838   24.8880 C   0  0  0  0  0  0  0  0  0  0  0  0
   -1.9461   34.5559   24.1450 O   0  0  0  0  0  0  0  0  0  0  0  0
    0.1519   35.3810   24.7448 C   0  0  1  0  0  0  0  0  0  0  0  0
    1.2000   35.1389   25.5840 O   0  0  0  0  0  0  0  0  0  0  0  0
    2.3774   35.1923   24.8502 C   0  0  1  0  0  0  0  0  0  0  0  0
    2.8887   33.8624   24.5981 N   0  0  0  0  0  0  0  0  0  0  0  0
    2.2649   32.7676   24.1938 C   0  0  0  0  0  0  0  0  0  0  0  0
    3.1052   31.7197   24.0775 N   0  0  0  0  0  0  0  0  0  0  0  0
    4.3090   32.1566   24.4186 C   0  0  0  0  0  0  0  0  0  0  0  0
    5.5567   31.5341   24.4904 C   0  0  0  0  0  0  0  0  0  0  0  0
    5.6985   30.1499   24.1545 N   0  0  0  0  0  0  0  0  0  0  0  0
    6.6169   32.2841   24.8865 N   0  0  0  0  0  0  0  0  0  0  0  0
    6.4750   33.5843   25.2004 C   0  0  0  0  0  0  0  0  0  0  0  0
    5.2791   34.2229   25.1425 N   0  0  0  0  0  0  0  0  0  0  0  0
    4.1940   33.4998   24.7488 C   0  0  0  0  0  0  0  0  0  0  0  0
    2.1037   35.8982   23.5617 C   0  0  2  0  0  0  0  0  0  0  0  0
    2.2186   37.2725   23.6094 O   0  0  0  0  0  0  0  0  0  0  0  0
    0.6242   35.5562   23.3491 C   0  0  2  0  0  0  0  0  0  0  0  0
   -0.0111   36.6204   22.6915 O   0  0  0  0  0  0  0  0  0  0  0  0
  1  2  1  0
  2  3  1  0
  3  4  1  0
  4  5  1  0
  5  6  2  0
  7  5  1  6
  7  8  1  0
  8  9  1  0
  9 10  1  6
 10 11  1  0
 11 12  2  0
 12 13  1  0
 13 14  2  0
 14 15  1  0
 14 16  1  0
 16 17  2  0
 17 18  1  0
 18 19  2  0
  9 20  1  0
 20 21  1  1
 20 22  1  0
 22 23  1  1
 22  7  1  0
 19 10  1  0
 19 13  1  0
M  END
>  <shape_align_shape_tanimoto>  (2) 
0.56252748585258838

>  <shape_align_color_tanimoto>  (2) 
0.15804811645076514

>  <metric>  (2) 
color

>  <metric_score>  (2) 
0.158

>  <template_pid>  (2) 
6D1X

>  <template_shape_score>  (2) 
0.563

>  <template_color_score>  (2) 
0.158

>  <template_combo_score>  (2) 
0.360

$$$$
6D1X_combo_pose
     RDKit          3D

 23 25  0  0  0  0  0  0  0  0999 V2000
   -2.7582   33.9609   20.9298 C   0  0  0  0  0  0  0  0  0  0  0  0
   -1.4639   34.2675   21.6542 C   0  0  0  0  0  0  0  0  0  0  0  0
   -1.5528   35.6645   22.1875 C   0  0  0  0  0  0  0  0  0  0  0  0
   -0.3946   36.1136   22.9076 N   0  0  0  0  0  0  0  0  0  0  0  0
    0.0372   35.4239   24.0742 C   0  0  0  0  0  0  0  0  0  0  0  0
   -0.6155   34.4184   24.4569 O   0  0  0  0  0  0  0  0  0  0  0  0
    1.2211   35.9006   24.7918 C   0  0  1  0  0  0  0  0  0  0  0  0
    1.5336   35.1533   25.8959 O   0  0  0  0  0  0  0  0  0  0  0  0
    2.9101   34.9745   25.9557 C   0  0  1  0  0  0  0  0  0  0  0  0
    3.2749   33.7055   25.3401 N   0  0  0  0  0  0  0  0  0  0  0  0
    2.4506   32.6880   24.9995 C   0  0  0  0  0  0  0  0  0  0  0  0
    3.1727   31.6937   24.4575 N   0  0  0  0  0  0  0  0  0  0  0  0
    4.4622   32.0317   24.4318 C   0  0  0  0  0  0  0  0  0  0  0  0
    5.5931   31.3863   23.9894 C   0  0  0  0  0  0  0  0  0  0  0  0
    5.5475   30.0901   23.4179 N   0  0  0  0  0  0  0  0  0  0  0  0
    6.7828   32.0371   24.1166 N   0  0  0  0  0  0  0  0  0  0  0  0
    6.8650   33.2689   24.6544 C   0  0  0  0  0  0  0  0  0  0  0  0
    5.7356   33.8618   25.0732 N   0  0  0  0  0  0  0  0  0  0  0  0
    4.5122   33.3074   24.9935 C   0  0  0  0  0  0  0  0  0  0  0  0
    3.4931   36.0694   25.0771 C   0  0  2  0  0  0  0  0  0  0  0  0
    3.2950   37.2964   25.6995 O   0  0  0  0  0  0  0  0  0  0  0  0
    2.4717   35.9760   23.9324 C   0  0  2  0  0  0  0  0  0  0  0  0
    2.5430   37.0925   23.1432 O   0  0  0  0  0  0  0  0  0  0  0  0
  1  2  1  0
  2  3  1  0
  3  4  1  0
  4  5  1  0
  5  6  2  0
  7  5  1  6
  7  8  1  0
  8  9  1  0
  9 10  1  6
 10 11  1  0
 11 12  2  0
 12 13  1  0
 13 14  2  0
 14 15  1  0
 14 16  1  0
 16 17  2  0
 17 18  1  0
 18 19  2  0
  9 20  1  0
 20 21  1  1
 20 22  1  0
 22 23  1  6
 22  7  1  0
 19 10  1  0
 19 13  1  0
M  END
>  <shape_align_shape_tanimoto>  (3) 
0.66795920002317555

>  <shape_align_color_tanimoto>  (3) 
0.11660544487071918

>  <metric>  (3) 
combo

>  <metric_score>  (3) 
0.392

>  <template_pid>  (3) 
6D1X

>  <template_shape_score>  (3) 
0.668

>  <template_color_score>  (3) 
0.117

>  <template_combo_score>  (3) 
0.392

$$$$
