2X6X_shape_pose
     RDKit          3D

 47 50  0  0  0  0  0  0  0  0999 V2000
   27.8577  -61.1747   11.5982 C   0  0  0  0  0  0  0  0  0  0  0  0
   27.9093  -60.9143   13.0660 C   0  0  0  0  0  0  0  0  0  0  0  0
   27.8922  -59.7263   13.4885 O   0  0  0  0  0  0  0  0  0  0  0  0
   27.9773  -62.0396   13.9448 N   0  0  0  0  0  0  0  0  0  0  0  0
   28.0301  -61.8307   15.3833 C   0  0  1  0  0  0  0  0  0  0  0  0
   26.9995  -62.6307   16.1141 C   0  0  2  0  0  0  0  0  0  0  0  0
   25.7314  -62.0747   16.0657 O   0  0  0  0  0  0  0  0  0  0  0  0
   24.8089  -62.8687   15.3999 C   0  0  2  0  0  0  0  0  0  0  0  0
   24.3143  -62.0578   14.2215 C   0  0  1  0  0  0  0  0  0  0  0  0
   23.4335  -62.7201   13.4041 O   0  0  0  0  0  0  0  0  0  0  0  0
   23.8046  -60.7412   14.7614 C   0  0  1  0  0  0  0  0  0  0  0  0
   22.9732  -60.0718   13.8668 O   0  0  0  0  0  0  0  0  0  0  0  0
   23.1953  -60.8993   16.0055 O   0  0  0  0  0  0  0  0  0  0  0  0
   22.6043  -62.1646   16.1190 C   0  0  2  0  0  0  0  0  0  0  0  0
   21.5887  -62.0524   17.2208 C   0  0  0  0  0  0  0  0  0  0  0  0
   20.6881  -61.0355   16.8137 O   0  0  0  0  0  0  0  0  0  0  0  0
   23.6112  -63.2478   16.2699 C   0  0  2  0  0  0  0  0  0  0  0  0
   24.0054  -63.5504   17.5563 O   0  0  0  0  0  0  0  0  0  0  0  0
   23.8708  -64.8853   17.9121 C   0  0  1  0  0  0  0  0  0  0  0  0
   25.1254  -65.5013   18.0328 O   0  0  0  0  0  0  0  0  0  0  0  0
   25.7015  -65.4597   19.2508 C   0  0  2  0  0  0  0  0  0  0  0  0
   25.9038  -66.7341   19.9998 C   0  0  0  0  0  0  0  0  0  0  0  0
   26.7095  -67.6909   19.4586 O   0  0  0  0  0  0  0  0  0  0  0  0
   26.2290  -68.1705   18.2703 C   0  0  2  0  0  0  0  0  0  0  0  0
   25.9688  -69.5601   18.4311 O   0  0  0  0  0  0  0  0  0  0  0  0
   25.4711  -70.1072   17.2742 C   0  0  1  0  0  0  0  0  0  0  0  0
   24.0410  -70.5601   17.6032 C   0  0  0  0  0  0  0  0  0  0  0  0
   25.4222  -69.1907   16.0934 C   0  0  2  0  0  0  0  0  0  0  0  0
   25.0635  -69.9620   14.9874 O   0  0  0  0  0  0  0  0  0  0  0  0
   26.7511  -68.5194   15.8957 C   0  0  1  0  0  0  0  0  0  0  0  0
   26.5864  -67.4673   14.9871 O   0  0  0  0  0  0  0  0  0  0  0  0
   27.3034  -68.0446   17.2132 C   0  0  1  0  0  0  0  0  0  0  0  0
   27.7424  -66.7540   17.0962 O   0  0  0  0  0  0  0  0  0  0  0  0
   25.1026  -64.4243   20.1868 C   0  0  1  0  0  0  0  0  0  0  0  0
   25.3507  -63.1385   19.7757 O   0  0  0  0  0  0  0  0  0  0  0  0
   23.6505  -64.6771   20.3969 C   0  0  2  0  0  0  0  0  0  0  0  0
   23.4341  -65.5963   21.4324 O   0  0  0  0  0  0  0  0  0  0  0  0
   23.0351  -65.1663   19.1059 C   0  0  1  0  0  0  0  0  0  0  0  0
   21.7412  -64.7468   19.0114 O   0  0  0  0  0  0  0  0  0  0  0  0
   27.3278  -62.9321   17.4042 O   0  0  0  0  0  0  0  0  0  0  0  0
   28.2832  -62.1719   18.0112 C   0  0  2  0  0  0  0  0  0  0  0  0
   27.7601  -60.8388   18.5529 C   0  0  0  0  0  0  0  0  0  0  0  0
   28.8132  -60.1216   19.1584 O   0  0  0  0  0  0  0  0  0  0  0  0
   29.5598  -61.9991   17.2527 C   0  0  1  0  0  0  0  0  0  0  0  0
   30.6575  -62.6351   17.8327 O   0  0  0  0  0  0  0  0  0  0  0  0
   29.3885  -62.3808   15.8072 C   0  0  2  0  0  0  0  0  0  0  0  0
   30.4062  -61.8791   15.0026 O   0  0  0  0  0  0  0  0  0  0  0  0
  1  2  1  0
  2  3  2  0
  2  4  1  0
  5  4  1  6
  5  6  1  0
  6  7  1  1
  8  7  1  1
  8  9  1  0
  9 10  1  1
  9 11  1  0
 11 12  1  6
 11 13  1  0
 13 14  1  0
 14 15  1  1
 15 16  1  0
 14 17  1  0
 17 18  1  1
 19 18  1  1
 19 20  1  0
 20 21  1  0
 21 22  1  1
 22 23  1  0
 24 23  1  1
 24 25  1  0
 25 26  1  0
 26 27  1  1
 26 28  1  0
 28 29  1  6
 28 30  1  0
 30 31  1  6
 30 32  1  0
 32 33  1  6
 21 34  1  0
 34 35  1  6
 34 36  1  0
 36 37  1  1
 36 38  1  0
 38 39  1  6
  6 40  1  0
 40 41  1  0
 41 42  1  6
 42 43  1  0
 41 44  1  0
 44 45  1  1
 44 46  1  0
 46 47  1  6
 46  5  1  0
 17  8  1  0
 38 19  1  0
 32 24  1  0
M  END
>  <shape_align_shape_tanimoto>  (1) 
0.48285214580475866

>  <shape_align_color_tanimoto>  (1) 
0.021281286583999862

>  <metric>  (1) 
shape

>  <metric_score>  (1) 
0.483

>  <template_pid>  (1) 
2X6X

>  <template_shape_score>  (1) 
0.483

>  <template_color_score>  (1) 
0.021

>  <template_combo_score>  (1) 
0.252

$$$$
2X6X_color_pose
     RDKit          3D

 47 50  0  0  0  0  0  0  0  0999 V2000
   31.5877  -59.7858   13.6727 C   0  0  0  0  0  0  0  0  0  0  0  0
   30.4232  -59.8678   14.6034 C   0  0  0  0  0  0  0  0  0  0  0  0
   29.5647  -58.9464   14.5398 O   0  0  0  0  0  0  0  0  0  0  0  0
   30.2868  -60.9583   15.5379 N   0  0  0  0  0  0  0  0  0  0  0  0
   29.1352  -60.9702   16.4050 C   0  0  1  0  0  0  0  0  0  0  0  0
   28.2848  -62.2285   16.1611 C   0  0  2  0  0  0  0  0  0  0  0  0
   26.9942  -61.7860   16.0404 O   0  0  0  0  0  0  0  0  0  0  0  0
   26.3742  -61.7708   14.8559 C   0  0  2  0  0  0  0  0  0  0  0  0
   25.8313  -60.4696   14.3854 C   0  0  1  0  0  0  0  0  0  0  0  0
   26.2908  -60.2708   13.0684 O   0  0  0  0  0  0  0  0  0  0  0  0
   24.3727  -60.2385   14.3918 C   0  0  1  0  0  0  0  0  0  0  0  0
   23.9643  -59.4799   13.2559 O   0  0  0  0  0  0  0  0  0  0  0  0
   23.5275  -61.3333   14.3899 O   0  0  0  0  0  0  0  0  0  0  0  0
   24.2214  -62.3828   13.8219 C   0  0  2  0  0  0  0  0  0  0  0  0
   23.4103  -63.5586   13.3947 C   0  0  0  0  0  0  0  0  0  0  0  0
   22.7086  -64.1329   14.4213 O   0  0  0  0  0  0  0  0  0  0  0  0
   25.2175  -62.8092   14.8965 C   0  0  2  0  0  0  0  0  0  0  0  0
   24.5879  -62.6989   16.1294 O   0  0  0  0  0  0  0  0  0  0  0  0
   24.4662  -63.8839   16.8335 C   0  0  1  0  0  0  0  0  0  0  0  0
   25.4708  -63.7936   17.8480 O   0  0  0  0  0  0  0  0  0  0  0  0
   25.4434  -64.9465   18.6285 C   0  0  2  0  0  0  0  0  0  0  0  0
   25.6633  -66.2141   17.8137 C   0  0  0  0  0  0  0  0  0  0  0  0
   26.8679  -66.1630   17.1595 O   0  0  0  0  0  0  0  0  0  0  0  0
   27.1115  -67.3140   16.3957 C   0  0  2  0  0  0  0  0  0  0  0  0
   28.2430  -67.9881   16.7652 O   0  0  0  0  0  0  0  0  0  0  0  0
   29.4153  -67.3247   16.4844 C   0  0  1  0  0  0  0  0  0  0  0  0
   30.5927  -68.1257   17.0017 C   0  0  0  0  0  0  0  0  0  0  0  0
   29.5637  -67.1845   14.9742 C   0  0  2  0  0  0  0  0  0  0  0  0
   30.7557  -66.5066   14.7565 O   0  0  0  0  0  0  0  0  0  0  0  0
   28.4280  -66.2736   14.5418 C   0  0  1  0  0  0  0  0  0  0  0  0
   28.4417  -66.1436   13.1450 O   0  0  0  0  0  0  0  0  0  0  0  0
   27.1173  -66.8689   14.9409 C   0  0  1  0  0  0  0  0  0  0  0  0
   26.7475  -67.9106   14.0909 O   0  0  0  0  0  0  0  0  0  0  0  0
   24.1442  -65.1287   19.3447 C   0  0  1  0  0  0  0  0  0  0  0  0
   24.4010  -65.0996   20.7281 O   0  0  0  0  0  0  0  0  0  0  0  0
   23.2131  -64.0143   18.9903 C   0  0  2  0  0  0  0  0  0  0  0  0
   21.9294  -64.2079   19.5073 O   0  0  0  0  0  0  0  0  0  0  0  0
   23.1204  -63.9388   17.4795 C   0  0  1  0  0  0  0  0  0  0  0  0
   22.3887  -62.7855   17.1855 O   0  0  0  0  0  0  0  0  0  0  0  0
   28.3788  -63.1570   17.1507 O   0  0  0  0  0  0  0  0  0  0  0  0
   29.5664  -63.3253   17.7940 C   0  0  2  0  0  0  0  0  0  0  0  0
   29.2403  -64.1241   19.0722 C   0  0  0  0  0  0  0  0  0  0  0  0
   30.3861  -64.3555   19.8031 O   0  0  0  0  0  0  0  0  0  0  0  0
   30.2319  -62.0712   18.2907 C   0  0  1  0  0  0  0  0  0  0  0  0
   31.5196  -61.9985   17.7221 O   0  0  0  0  0  0  0  0  0  0  0  0
   29.4888  -60.8316   17.8624 C   0  0  2  0  0  0  0  0  0  0  0  0
   28.3174  -60.7883   18.6148 O   0  0  0  0  0  0  0  0  0  0  0  0
  1  2  1  0
  2  3  2  0
  2  4  1  0
  5  4  1  6
  5  6  1  0
  6  7  1  1
  8  7  1  1
  8  9  1  0
  9 10  1  6
  9 11  1  0
 11 12  1  6
 11 13  1  0
 13 14  1  0
 14 15  1  1
 15 16  1  0
 14 17  1  0
 17 18  1  1
 19 18  1  6
 19 20  1  0
 20 21  1  0
 21 22  1  6
 22 23  1  0
 24 23  1  1
 24 25  1  0
 25 26  1  0
 26 27  1  6
 26 28  1  0
 28 29  1  1
 28 30  1  0
 30 31  1  6
 30 32  1  0
 32 33  1  6
 21 34  1  0
 34 35  1  1
 34 36  1  0
 36 37  1  1
 36 38  1  0
 38 39  1  1
  6 40  1  0
 40 41  1  0
 41 42  1  1
 42 43  1  0
 41 44  1  0
 44 45  1  6
 44 46  1  0
 46 47  1  1
 46  5  1  0
 17  8  1  0
 38 19  1  0
 32 24  1  0
M  END
>  <shape_align_shape_tanimoto>  (2) 
0.4454750336306092

>  <shape_align_color_tanimoto>  (2) 
0.069357949662984558

>  <metric>  (2) 
color

>  <metric_score>  (2) 
0.069

>  <template_pid>  (2) 
2X6X

>  <template_shape_score>  (2) 
0.445

>  <template_color_score>  (2) 
0.069

>  <template_combo_score>  (2) 
0.257

$$$$
2X6X_combo_pose
     RDKit          3D

 47 50  0  0  0  0  0  0  0  0999 V2000
   32.9690  -64.0535   17.6483 C   0  0  0  0  0  0  0  0  0  0  0  0
   31.9600  -63.1378   17.0387 C   0  0  0  0  0  0  0  0  0  0  0  0
   32.1282  -62.8423   15.8220 O   0  0  0  0  0  0  0  0  0  0  0  0
   30.8560  -62.6187   17.7915 N   0  0  0  0  0  0  0  0  0  0  0  0
   29.9368  -61.7426   17.1114 C   0  0  1  0  0  0  0  0  0  0  0  0
   28.5371  -62.3203   17.1445 C   0  0  2  0  0  0  0  0  0  0  0  0
   27.6901  -61.7441   16.2332 O   0  0  0  0  0  0  0  0  0  0  0  0
   27.3245  -62.5263   15.1581 C   0  0  2  0  0  0  0  0  0  0  0  0
   27.7653  -61.9338   13.8465 C   0  0  1  0  0  0  0  0  0  0  0  0
   27.4052  -62.7257   12.7827 O   0  0  0  0  0  0  0  0  0  0  0  0
   27.1832  -60.5473   13.6412 C   0  0  1  0  0  0  0  0  0  0  0  0
   26.8499  -60.4326   12.2973 O   0  0  0  0  0  0  0  0  0  0  0  0
   25.9709  -60.4393   14.3596 O   0  0  0  0  0  0  0  0  0  0  0  0
   25.2435  -61.6207   14.2138 C   0  0  2  0  0  0  0  0  0  0  0  0
   23.7903  -61.3039   14.4362 C   0  0  0  0  0  0  0  0  0  0  0  0
   22.9803  -62.4270   14.2562 O   0  0  0  0  0  0  0  0  0  0  0  0
   25.8251  -62.6413   15.1559 C   0  0  2  0  0  0  0  0  0  0  0  0
   25.4244  -62.4695   16.4729 O   0  0  0  0  0  0  0  0  0  0  0  0
   24.6979  -63.4801   17.0303 C   0  0  1  0  0  0  0  0  0  0  0  0
   25.4760  -64.1769   17.9713 O   0  0  0  0  0  0  0  0  0  0  0  0
   24.8551  -65.2186   18.5852 C   0  0  2  0  0  0  0  0  0  0  0  0
   25.0378  -66.4915   17.7914 C   0  0  0  0  0  0  0  0  0  0  0  0
   26.2757  -66.9851   17.6697 O   0  0  0  0  0  0  0  0  0  0  0  0
   27.2894  -66.3024   17.0762 C   0  0  2  0  0  0  0  0  0  0  0  0
   27.7686  -67.1136   16.0550 O   0  0  0  0  0  0  0  0  0  0  0  0
   28.6160  -68.1012   16.4467 C   0  0  1  0  0  0  0  0  0  0  0  0
   30.0335  -67.9312   15.8912 C   0  0  0  0  0  0  0  0  0  0  0  0
   28.6242  -68.4932   17.8806 C   0  0  2  0  0  0  0  0  0  0  0  0
   27.7658  -69.5614   18.1562 O   0  0  0  0  0  0  0  0  0  0  0  0
   28.3850  -67.4362   18.8888 C   0  0  1  0  0  0  0  0  0  0  0  0
   29.3167  -67.4356   19.9202 O   0  0  0  0  0  0  0  0  0  0  0  0
   28.3422  -66.0934   18.1496 C   0  0  1  0  0  0  0  0  0  0  0  0
   29.5774  -65.7384   17.6785 O   0  0  0  0  0  0  0  0  0  0  0  0
   23.4040  -65.0846   18.9057 C   0  0  1  0  0  0  0  0  0  0  0  0
   23.2906  -64.4731   20.1735 O   0  0  0  0  0  0  0  0  0  0  0  0
   22.6100  -64.3199   17.8994 C   0  0  2  0  0  0  0  0  0  0  0  0
   22.6186  -65.0492   16.7098 O   0  0  0  0  0  0  0  0  0  0  0  0
   23.3924  -63.0515   17.6122 C   0  0  1  0  0  0  0  0  0  0  0  0
   23.5467  -62.2812   18.7669 O   0  0  0  0  0  0  0  0  0  0  0  0
   27.9756  -62.4524   18.3712 O   0  0  0  0  0  0  0  0  0  0  0  0
   28.2064  -61.4253   19.2024 C   0  0  2  0  0  0  0  0  0  0  0  0
   26.9223  -61.1930   20.0071 C   0  0  0  0  0  0  0  0  0  0  0  0
   26.6597  -62.3584   20.6979 O   0  0  0  0  0  0  0  0  0  0  0  0
   28.6672  -60.1643   18.5465 C   0  0  1  0  0  0  0  0  0  0  0  0
   28.8228  -59.1926   19.5345 O   0  0  0  0  0  0  0  0  0  0  0  0
   29.9527  -60.3734   17.7642 C   0  0  2  0  0  0  0  0  0  0  0  0
   30.0913  -59.3293   16.8663 O   0  0  0  0  0  0  0  0  0  0  0  0
  1  2  1  0
  2  3  2  0
  2  4  1  0
  5  4  1  1
  5  6  1  0
  6  7  1  6
  8  7  1  1
  8  9  1  0
  9 10  1  6
  9 11  1  0
 11 12  1  6
 11 13  1  0
 13 14  1  0
 14 15  1  1
 15 16  1  0
 14 17  1  0
 17 18  1  1
 19 18  1  1
 19 20  1  0
 20 21  1  0
 21 22  1  6
 22 23  1  0
 24 23  1  1
 24 25  1  0
 25 26  1  0
 26 27  1  1
 26 28  1  0
 28 29  1  6
 28 30  1  0
 30 31  1  1
 30 32  1  0
 32 33  1  6
 21 34  1  0
 34 35  1  1
 34 36  1  0
 36 37  1  6
 36 38  1  0
 38 39  1  1
  6 40  1  0
 40 41  1  0
 41 42  1  6
 42 43  1  0
 41 44  1  0
 44 45  1  1
 44 46  1  0
 46 47  1  6
 46  5  1  0
 17  8  1  0
 38 19  1  0
 32 24  1  0
M  END
>  <shape_align_shape_tanimoto>  (3) 
0.47512998993092759

>  <shape_align_color_tanimoto>  (3) 
0.052708863163885553

>  <metric>  (3) 
combo

>  <metric_score>  (3) 
0.264

>  <template_pid>  (3) 
2X6X

>  <template_shape_score>  (3) 
0.475

>  <template_color_score>  (3) 
0.053

>  <template_combo_score>  (3) 
0.264

$$$$
