6GGE_shape_pose
     RDKit          3D

 24 27  0  0  0  0  0  0  0  0999 V2000
   94.0411   92.5416  -42.0247 C   0  0  0  0  0  0  0  0  0  0  0  0
   92.5267   92.5097  -41.8581 C   0  0  0  0  0  0  0  0  0  0  0  0
   91.9937   93.5214  -42.7551 N   0  0  0  0  0  0  0  0  0  0  0  0
   91.7883   94.8064  -42.4143 C   0  0  0  0  0  0  0  0  0  0  0  0
   91.9678   95.5607  -41.2724 C   0  0  0  0  0  0  0  0  0  0  0  0
   91.6606   96.9056  -41.2053 C   0  0  0  0  0  0  0  0  0  0  0  0
   91.1492   97.5317  -42.3301 C   0  0  0  0  0  0  0  0  0  0  0  0
   90.8037   98.9799  -42.3043 C   0  0  0  0  0  0  0  0  0  0  0  0
   91.9844   99.7477  -42.7068 N   0  0  0  0  0  0  0  0  0  0  0  0
   91.6597  101.1520  -42.5045 C   0  0  0  0  0  0  0  0  0  0  0  0
   90.9597   96.8002  -43.4861 C   0  0  0  0  0  0  0  0  0  0  0  0
   91.2767   95.4569  -43.5211 C   0  0  0  0  0  0  0  0  0  0  0  0
   91.1734   94.5379  -44.5502 C   0  0  0  0  0  0  0  0  0  0  0  0
   90.7317   94.6326  -45.8638 C   0  0  0  0  0  0  0  0  0  0  0  0
   90.7451   93.5131  -46.6802 C   0  0  0  0  0  0  0  0  0  0  0  0
   91.2064   92.3330  -46.1372 C   0  0  0  0  0  0  0  0  0  0  0  0
   91.2203   91.1497  -47.0010 C   0  0  0  0  0  0  0  0  0  0  0  0
   91.6223   89.8588  -46.7291 C   0  0  0  0  0  0  0  0  0  0  0  0
   91.5471   88.9379  -47.6714 C   0  0  0  0  0  0  0  0  0  0  0  0
   91.0643   89.2754  -48.9280 C   0  0  0  0  0  0  0  0  0  0  0  0
   90.8479   88.5730  -50.1443 C   0  0  0  0  0  0  0  0  0  0  0  0
   90.6804   91.1211  -48.7176 S   0  0  0  0  0  0  0  0  0  0  0  0
   91.6502   92.1837  -44.8590 C   0  0  0  0  0  0  0  0  0  0  0  0
   91.6345   93.3186  -44.0380 C   0  0  0  0  0  0  0  0  0  0  0  0
  1  2  1  0
  2  3  1  0
  3  4  1  0
  4  5  2  0
  5  6  1  0
  6  7  2  0
  7  8  1  0
  8  9  1  0
  9 10  1  0
  7 11  1  0
 11 12  2  0
 12 13  1  0
 13 14  2  0
 14 15  1  0
 15 16  2  0
 16 17  1  0
 17 18  2  0
 18 19  1  0
 19 20  2  0
 20 21  1  0
 20 22  1  0
 16 23  1  0
 23 24  2  0
 24  3  1  0
 12  4  1  0
 24 13  1  0
 22 17  1  0
M  CHG  1   9   1
M  END
>  <shape_align_shape_tanimoto>  (1) 
0.73452836344761385

>  <shape_align_color_tanimoto>  (1) 
0.10879759306793514

>  <metric>  (1) 
shape

>  <metric_score>  (1) 
0.735

>  <template_pid>  (1) 
6GGE

>  <template_shape_score>  (1) 
0.735

>  <template_color_score>  (1) 
0.109

>  <template_combo_score>  (1) 
0.422

$$$$
6GGE_color_pose
     RDKit          3D

 24 27  0  0  0  0  0  0  0  0999 V2000
   90.1456   92.1173  -45.3254 C   0  0  0  0  0  0  0  0  0  0  0  0
   91.4020   92.9248  -45.4778 C   0  0  0  0  0  0  0  0  0  0  0  0
   91.6853   93.7074  -44.2990 N   0  0  0  0  0  0  0  0  0  0  0  0
   91.2617   94.9794  -44.0447 C   0  0  0  0  0  0  0  0  0  0  0  0
   90.4858   95.8793  -44.7598 C   0  0  0  0  0  0  0  0  0  0  0  0
   90.2273   97.1329  -44.2102 C   0  0  0  0  0  0  0  0  0  0  0  0
   90.7296   97.4965  -42.9661 C   0  0  0  0  0  0  0  0  0  0  0  0
   90.4261   98.8472  -42.4211 C   0  0  0  0  0  0  0  0  0  0  0  0
   91.4289   99.8253  -42.8160 N   0  0  0  0  0  0  0  0  0  0  0  0
   92.3581  100.1057  -41.7454 C   0  0  0  0  0  0  0  0  0  0  0  0
   91.5114   96.5909  -42.2447 C   0  0  0  0  0  0  0  0  0  0  0  0
   91.7560   95.3568  -42.8041 C   0  0  0  0  0  0  0  0  0  0  0  0
   92.4956   94.2915  -42.2942 C   0  0  0  0  0  0  0  0  0  0  0  0
   93.1859   94.1500  -41.1137 C   0  0  0  0  0  0  0  0  0  0  0  0
   93.8405   92.9655  -40.8616 C   0  0  0  0  0  0  0  0  0  0  0  0
   93.7897   91.9510  -41.7948 C   0  0  0  0  0  0  0  0  0  0  0  0
   94.4834   90.6914  -41.5314 C   0  0  0  0  0  0  0  0  0  0  0  0
   95.2073   90.3304  -40.4690 C   0  0  0  0  0  0  0  0  0  0  0  0
   95.7669   89.1075  -40.4272 C   0  0  0  0  0  0  0  0  0  0  0  0
   95.5495   88.2876  -41.5127 C   0  0  0  0  0  0  0  0  0  0  0  0
   96.0132   86.9000  -41.7834 C   0  0  0  0  0  0  0  0  0  0  0  0
   94.5202   89.2740  -42.6328 S   0  0  0  0  0  0  0  0  0  0  0  0
   93.1010   92.0765  -42.9854 C   0  0  0  0  0  0  0  0  0  0  0  0
   92.4332   93.2763  -43.2497 C   0  0  0  0  0  0  0  0  0  0  0  0
  1  2  1  0
  2  3  1  0
  3  4  1  0
  4  5  2  0
  5  6  1  0
  6  7  2  0
  7  8  1  0
  8  9  1  0
  9 10  1  0
  7 11  1  0
 11 12  2  0
 12 13  1  0
 13 14  2  0
 14 15  1  0
 15 16  2  0
 16 17  1  0
 17 18  2  0
 18 19  1  0
 19 20  2  0
 20 21  1  0
 20 22  1  0
 16 23  1  0
 23 24  2  0
 24  3  1  0
 12  4  1  0
 24 13  1  0
 22 17  1  0
M  CHG  1   9   1
M  END
>  <shape_align_shape_tanimoto>  (2) 
0.61937090621729529

>  <shape_align_color_tanimoto>  (2) 
0.13174483187846678

>  <metric>  (2) 
color

>  <metric_score>  (2) 
0.132

>  <template_pid>  (2) 
6GGE

>  <template_shape_score>  (2) 
0.619

>  <template_color_score>  (2) 
0.132

>  <template_combo_score>  (2) 
0.376

$$$$
6GGE_combo_pose
     RDKit          3D

 24 27  0  0  0  0  0  0  0  0999 V2000
   94.0924   92.6077  -41.9452 C   0  0  0  0  0  0  0  0  0  0  0  0
   92.5772   92.6517  -41.8527 C   0  0  0  0  0  0  0  0  0  0  0  0
   92.0062   93.6698  -42.7203 N   0  0  0  0  0  0  0  0  0  0  0  0
   91.7569   94.9642  -42.4011 C   0  0  0  0  0  0  0  0  0  0  0  0
   91.9623   95.6537  -41.2222 C   0  0  0  0  0  0  0  0  0  0  0  0
   91.6125   96.9945  -41.1645 C   0  0  0  0  0  0  0  0  0  0  0  0
   91.0684   97.6370  -42.2603 C   0  0  0  0  0  0  0  0  0  0  0  0
   90.7023   99.0592  -42.1846 C   0  0  0  0  0  0  0  0  0  0  0  0
   91.7512   99.9515  -42.5548 N   0  0  0  0  0  0  0  0  0  0  0  0
   92.6163   99.4750  -43.6117 C   0  0  0  0  0  0  0  0  0  0  0  0
   90.8553   96.9585  -43.4534 C   0  0  0  0  0  0  0  0  0  0  0  0
   91.2119   95.6076  -43.4989 C   0  0  0  0  0  0  0  0  0  0  0  0
   91.1414   94.6488  -44.4966 C   0  0  0  0  0  0  0  0  0  0  0  0
   90.6728   94.7625  -45.8012 C   0  0  0  0  0  0  0  0  0  0  0  0
   90.7103   93.6296  -46.6200 C   0  0  0  0  0  0  0  0  0  0  0  0
   91.2090   92.4530  -46.0981 C   0  0  0  0  0  0  0  0  0  0  0  0
   91.2544   91.2729  -46.9318 C   0  0  0  0  0  0  0  0  0  0  0  0
   91.6578   90.0016  -46.7724 C   0  0  0  0  0  0  0  0  0  0  0  0
   91.5493   89.1419  -47.8019 C   0  0  0  0  0  0  0  0  0  0  0  0
   91.0383   89.5706  -48.9746 C   0  0  0  0  0  0  0  0  0  0  0  0
   90.8193   88.8469  -50.2223 C   0  0  0  0  0  0  0  0  0  0  0  0
   90.6441   91.3243  -48.7105 S   0  0  0  0  0  0  0  0  0  0  0  0
   91.6733   92.3365  -44.8085 C   0  0  0  0  0  0  0  0  0  0  0  0
   91.6367   93.4564  -43.9980 C   0  0  0  0  0  0  0  0  0  0  0  0
  1  2  1  0
  2  3  1  0
  3  4  1  0
  4  5  2  0
  5  6  1  0
  6  7  2  0
  7  8  1  0
  8  9  1  0
  9 10  1  0
  7 11  1  0
 11 12  2  0
 12 13  1  0
 13 14  2  0
 14 15  1  0
 15 16  2  0
 16 17  1  0
 17 18  2  0
 18 19  1  0
 19 20  2  0
 20 21  1  0
 20 22  1  0
 16 23  1  0
 23 24  2  0
 24  3  1  0
 12  4  1  0
 24 13  1  0
 22 17  1  0
M  CHG  1   9   1
M  END
>  <shape_align_shape_tanimoto>  (3) 
0.73334002993174474

>  <shape_align_color_tanimoto>  (3) 
0.11613247055216998

>  <metric>  (3) 
combo

>  <metric_score>  (3) 
0.425

>  <template_pid>  (3) 
6GGE

>  <template_shape_score>  (3) 
0.733

>  <template_color_score>  (3) 
0.116

>  <template_combo_score>  (3) 
0.425

$$$$
