6FDT_shape_pose
     RDKit          3D

 66 66  0  0  0  0  0  0  0  0999 V2000
    5.5116   10.7179    0.8855 C   0  0  0  0  0  0  0  0  0  0  0  0
    5.5900   10.1923    2.3152 C   0  0  0  0  0  0  0  0  0  0  0  0
    6.9100    9.4915    2.4833 C   0  0  2  0  0  0  0  0  0  0  0  0
    6.9186    8.3237    1.5347 C   0  0  0  0  0  0  0  0  0  0  0  0
    7.2766    9.0999    3.8700 C   0  0  2  0  0  0  0  0  0  0  0  0
    7.4672   10.1806    4.8055 N   0  0  0  0  0  0  0  0  0  0  0  0
    7.4920   11.5638    4.5326 C   0  0  0  0  0  0  0  0  0  0  0  0
    7.4080   12.0512    3.3535 O   0  0  0  0  0  0  0  0  0  0  0  0
    7.6156   12.6089    5.5945 C   0  0  1  0  0  0  0  0  0  0  0  0
    7.9198   13.8430    4.9265 N   0  0  0  0  0  0  0  0  0  0  0  0
    8.0659   15.1318    5.4750 C   0  0  0  0  0  0  0  0  0  0  0  0
    7.9120   15.3293    6.7032 O   0  0  0  0  0  0  0  0  0  0  0  0
    8.4098   16.2867    4.6072 C   0  0  2  0  0  0  0  0  0  0  0  0
    9.9312   16.4892    4.6556 C   0  0  0  0  0  0  0  0  0  0  0  0
   10.0950   17.3382    5.9085 C   0  0  0  0  0  0  0  0  0  0  0  0
    8.9038   18.2550    5.8627 C   0  0  0  0  0  0  0  0  0  0  0  0
    7.9018   17.5490    5.0531 N   0  0  0  0  0  0  0  0  0  0  0  0
    6.5893   18.0824    4.7765 C   0  0  0  0  0  0  0  0  0  0  0  0
    6.2205   19.2056    5.2378 O   0  0  0  0  0  0  0  0  0  0  0  0
    5.7088   17.2429    3.9249 C   0  0  0  0  0  0  0  0  0  0  0  0
    4.4303   17.8942    3.7400 N   0  0  0  0  0  0  0  0  0  0  0  0
    4.3476   19.1858    3.1513 C   0  0  0  0  0  0  0  0  0  0  0  0
    5.4116   19.8064    2.7799 O   0  0  0  0  0  0  0  0  0  0  0  0
    3.0819   19.9001    2.9184 C   0  0  1  0  0  0  0  0  0  0  0  0
    1.9869   19.0105    3.3245 N   0  0  0  0  0  0  0  0  0  0  0  0
    2.9648   21.2261    3.5838 C   0  0  0  0  0  0  0  0  0  0  0  0
    1.7739   21.8646    3.2578 O   0  0  0  0  0  0  0  0  0  0  0  0
    6.3250   12.6472    6.4116 C   0  0  1  0  0  0  0  0  0  0  0  0
    6.2067   11.3260    7.1568 C   0  0  0  0  0  0  0  0  0  0  0  0
    6.4326   13.6045    7.3928 O   0  0  0  0  0  0  0  0  0  0  0  0
    8.2449    8.0388    3.9435 C   0  0  0  0  0  0  0  0  0  0  0  0
    8.0630    6.9778    3.2731 O   0  0  0  0  0  0  0  0  0  0  0  0
    9.3981    8.2172    4.7837 N   0  0  0  0  0  0  0  0  0  0  0  0
   10.4196    7.1587    4.9018 C   0  0  1  0  0  0  0  0  0  0  0  0
    9.8356    5.9460    5.5415 C   0  0  0  0  0  0  0  0  0  0  0  0
   10.7537    4.7716    5.7064 C   0  0  0  0  0  0  0  0  0  0  0  0
   11.9444    5.0744    6.5174 C   0  0  0  0  0  0  0  0  0  0  0  0
   12.7743    4.1439    6.6937 O   0  0  0  0  0  0  0  0  0  0  0  0
   12.2393    6.2877    7.1070 O   0  0  0  0  0  0  0  0  0  0  0  0
   11.1222    6.9253    3.6389 C   0  0  0  0  0  0  0  0  0  0  0  0
   12.0418    6.0351    3.5050 O   0  0  0  0  0  0  0  0  0  0  0  0
   10.8540    7.6658    2.4428 N   0  0  0  0  0  0  0  0  0  0  0  0
   11.5486    7.4455    1.1949 C   0  0  1  0  0  0  0  0  0  0  0  0
   10.6465    6.7907    0.1492 C   0  0  0  0  0  0  0  0  0  0  0  0
   10.1305    5.4529    0.5828 C   0  0  0  0  0  0  0  0  0  0  0  0
    9.2334    4.8719   -0.4806 C   0  0  0  0  0  0  0  0  0  0  0  0
    9.0664    5.6072   -1.4957 O   0  0  0  0  0  0  0  0  0  0  0  0
    8.6369    3.6372   -0.3642 O   0  0  0  0  0  0  0  0  0  0  0  0
   11.9896    8.7373    0.6367 C   0  0  0  0  0  0  0  0  0  0  0  0
   12.6245    8.6889   -0.4708 O   0  0  0  0  0  0  0  0  0  0  0  0
   11.7517   10.0011    1.2466 N   0  0  0  0  0  0  0  0  0  0  0  0
   12.2382   11.1698    0.5789 C   0  0  2  0  0  0  0  0  0  0  0  0
   13.2408   11.9201    1.3870 C   0  0  0  0  0  0  0  0  0  0  0  0
   13.7425   12.9401    0.8189 O   0  0  0  0  0  0  0  0  0  0  0  0
   13.6241   11.5416    2.7082 N   0  0  0  0  0  0  0  0  0  0  0  0
   14.5941   12.3515    3.3742 C   0  0  1  0  0  0  0  0  0  0  0  0
   14.0095   13.1661    4.5023 C   0  0  0  0  0  0  0  0  0  0  0  0
   15.1300   13.9766    5.0978 C   0  0  0  0  0  0  0  0  0  0  0  0
   16.2993   13.9407    4.6132 O   0  0  0  0  0  0  0  0  0  0  0  0
   14.8919   14.8001    6.2214 O   0  0  0  0  0  0  0  0  0  0  0  0
   15.8089   11.5839    3.8151 C   0  0  0  0  0  0  0  0  0  0  0  0
   15.8995   11.3916    5.0532 O   0  0  0  0  0  0  0  0  0  0  0  0
   16.7268   11.1427    2.8799 O   0  0  0  0  0  0  0  0  0  0  0  0
   11.0984   12.1010    0.1962 C   0  0  0  0  0  0  0  0  0  0  0  0
   10.3383   12.5572    1.4205 C   0  0  0  0  0  0  0  0  0  0  0  0
   10.1125   11.2405   -0.6128 C   0  0  0  0  0  0  0  0  0  0  0  0
  1  2  1  0
  2  3  1  0
  3  4  1  6
  3  5  1  0
  5  6  1  6
  6  7  1  0
  7  8  2  0
  7  9  1  0
  9 10  1  6
 10 11  1  0
 11 12  2  0
 13 11  1  1
 13 14  1  0
 14 15  1  0
 15 16  1  0
 16 17  1  0
 17 18  1  0
 18 19  2  0
 18 20  1  0
 20 21  1  0
 21 22  1  0
 22 23  2  0
 22 24  1  0
 24 25  1  1
 24 26  1  0
 26 27  1  0
  9 28  1  0
 28 29  1  1
 28 30  1  0
  5 31  1  0
 31 32  2  0
 31 33  1  0
 33 34  1  0
 34 35  1  6
 35 36  1  0
 36 37  1  0
 37 38  2  0
 37 39  1  0
 34 40  1  0
 40 41  2  0
 40 42  1  0
 42 43  1  0
 43 44  1  6
 44 45  1  0
 45 46  1  0
 46 47  2  0
 46 48  1  0
 43 49  1  0
 49 50  2  0
 49 51  1  0
 52 51  1  1
 52 53  1  0
 53 54  2  0
 53 55  1  0
 55 56  1  0
 56 57  1  1
 57 58  1  0
 58 59  2  0
 58 60  1  0
 56 61  1  0
 61 62  2  0
 61 63  1  0
 52 64  1  0
 64 65  1  0
 64 66  1  0
 17 13  1  0
M  CHG  5  25   1  39  -1  48  -1  60  -1  63  -1
M  END
>  <shape_align_shape_tanimoto>  (1) 
0.37584147252376671

>  <shape_align_color_tanimoto>  (1) 
0.01924289769536287

>  <metric>  (1) 
shape

>  <metric_score>  (1) 
0.376

>  <template_pid>  (1) 
6FDT

>  <template_shape_score>  (1) 
0.376

>  <template_color_score>  (1) 
0.019

>  <template_combo_score>  (1) 
0.198

$$$$
6FDT_color_pose
     RDKit          3D

 66 66  0  0  0  0  0  0  0  0999 V2000
   13.7461   18.1644    6.2809 C   0  0  0  0  0  0  0  0  0  0  0  0
   13.6841   17.6410    4.8685 C   0  0  0  0  0  0  0  0  0  0  0  0
   14.1693   16.2506    4.6800 C   0  0  2  0  0  0  0  0  0  0  0  0
   14.0077   15.9335    3.1926 C   0  0  0  0  0  0  0  0  0  0  0  0
   13.7230   15.1672    5.5301 C   0  0  2  0  0  0  0  0  0  0  0  0
   14.3466   13.8400    5.2180 N   0  0  0  0  0  0  0  0  0  0  0  0
   13.7386   12.9465    4.3208 C   0  0  0  0  0  0  0  0  0  0  0  0
   12.6619   13.3000    3.7848 O   0  0  0  0  0  0  0  0  0  0  0  0
   14.2581   11.6065    3.9412 C   0  0  1  0  0  0  0  0  0  0  0  0
   13.4519   11.0425    2.8473 N   0  0  0  0  0  0  0  0  0  0  0  0
   13.2612   11.7328    1.6280 C   0  0  0  0  0  0  0  0  0  0  0  0
   13.8539   12.8763    1.5528 O   0  0  0  0  0  0  0  0  0  0  0  0
   12.5023   11.3419    0.4629 C   0  0  2  0  0  0  0  0  0  0  0  0
   11.4192   12.3621    0.1041 C   0  0  0  0  0  0  0  0  0  0  0  0
   10.3915   11.9452    1.1569 C   0  0  0  0  0  0  0  0  0  0  0  0
   10.3753   10.4285    1.0640 C   0  0  0  0  0  0  0  0  0  0  0  0
   11.7137   10.1199    0.5362 N   0  0  0  0  0  0  0  0  0  0  0  0
   12.2165    8.8734    0.1066 C   0  0  0  0  0  0  0  0  0  0  0  0
   13.4652    8.9061   -0.2849 O   0  0  0  0  0  0  0  0  0  0  0  0
   11.6058    7.5702    0.0178 C   0  0  0  0  0  0  0  0  0  0  0  0
   10.2688    7.3472    0.4108 N   0  0  0  0  0  0  0  0  0  0  0  0
    9.7577    5.9963    0.2207 C   0  0  0  0  0  0  0  0  0  0  0  0
   10.4900    5.0919   -0.2658 O   0  0  0  0  0  0  0  0  0  0  0  0
    8.3570    5.6830    0.6025 C   0  0  1  0  0  0  0  0  0  0  0  0
    8.0700    4.3060    0.2508 N   0  0  0  0  0  0  0  0  0  0  0  0
    8.1077    5.8508    2.0840 C   0  0  0  0  0  0  0  0  0  0  0  0
    6.7405    5.5389    2.2650 O   0  0  0  0  0  0  0  0  0  0  0  0
   15.7222   11.5293    3.7403 C   0  0  1  0  0  0  0  0  0  0  0  0
   16.2305   10.0989    3.6167 C   0  0  0  0  0  0  0  0  0  0  0  0
   16.1055   12.2201    2.6000 O   0  0  0  0  0  0  0  0  0  0  0  0
   12.3596   14.9765    5.9832 C   0  0  0  0  0  0  0  0  0  0  0  0
   12.0915   13.7807    6.4298 O   0  0  0  0  0  0  0  0  0  0  0  0
   11.2774   15.8597    6.0253 N   0  0  0  0  0  0  0  0  0  0  0  0
    9.9604   15.5038    6.5721 C   0  0  1  0  0  0  0  0  0  0  0  0
    9.0985   16.6439    6.8985 C   0  0  0  0  0  0  0  0  0  0  0  0
    8.7657   17.5316    5.7232 C   0  0  0  0  0  0  0  0  0  0  0  0
    7.8768   18.6518    6.1703 C   0  0  0  0  0  0  0  0  0  0  0  0
    7.5149   18.7135    7.3981 O   0  0  0  0  0  0  0  0  0  0  0  0
    7.4185   19.6375    5.3157 O   0  0  0  0  0  0  0  0  0  0  0  0
    9.3260   14.4811    5.6588 C   0  0  0  0  0  0  0  0  0  0  0  0
    9.9379   14.0820    4.6484 O   0  0  0  0  0  0  0  0  0  0  0  0
    8.0168   13.9553    5.9529 N   0  0  0  0  0  0  0  0  0  0  0  0
    7.5415   12.9377    5.0206 C   0  0  1  0  0  0  0  0  0  0  0  0
    7.4961   11.6678    5.8983 C   0  0  0  0  0  0  0  0  0  0  0  0
    7.0309   10.4433    5.1793 C   0  0  0  0  0  0  0  0  0  0  0  0
    7.0325    9.2536    6.1214 C   0  0  0  0  0  0  0  0  0  0  0  0
    7.4696    9.4840    7.2954 O   0  0  0  0  0  0  0  0  0  0  0  0
    6.5848    8.0093    5.7161 O   0  0  0  0  0  0  0  0  0  0  0  0
    6.2894   13.2060    4.3561 C   0  0  0  0  0  0  0  0  0  0  0  0
    5.9081   12.3658    3.4580 O   0  0  0  0  0  0  0  0  0  0  0  0
    5.4076   14.3064    4.5792 N   0  0  0  0  0  0  0  0  0  0  0  0
    4.2061   14.3386    3.7741 C   0  0  2  0  0  0  0  0  0  0  0  0
    3.9166   15.5812    3.0781 C   0  0  0  0  0  0  0  0  0  0  0  0
    2.9446   15.5482    2.2318 O   0  0  0  0  0  0  0  0  0  0  0  0
    4.5661   16.8171    3.2170 N   0  0  0  0  0  0  0  0  0  0  0  0
    4.1128   17.9256    2.4062 C   0  0  1  0  0  0  0  0  0  0  0  0
    3.2052   18.8912    3.1541 C   0  0  0  0  0  0  0  0  0  0  0  0
    1.9772   18.2111    3.6458 C   0  0  0  0  0  0  0  0  0  0  0  0
    1.0867   17.9644    2.7634 O   0  0  0  0  0  0  0  0  0  0  0  0
    1.7750   17.8529    4.9680 O   0  0  0  0  0  0  0  0  0  0  0  0
    5.2586   18.6558    1.8361 C   0  0  0  0  0  0  0  0  0  0  0  0
    5.0390   19.4629    0.9148 O   0  0  0  0  0  0  0  0  0  0  0  0
    6.5475   18.4693    2.2894 O   0  0  0  0  0  0  0  0  0  0  0  0
    3.0400   13.9357    4.7057 C   0  0  0  0  0  0  0  0  0  0  0  0
    2.9495   14.9118    5.8555 C   0  0  0  0  0  0  0  0  0  0  0  0
    1.7936   13.8638    3.8850 C   0  0  0  0  0  0  0  0  0  0  0  0
  1  2  1  0
  2  3  1  0
  3  4  1  6
  3  5  1  0
  5  6  1  6
  6  7  1  0
  7  8  2  0
  7  9  1  0
  9 10  1  6
 10 11  1  0
 11 12  2  0
 13 11  1  1
 13 14  1  0
 14 15  1  0
 15 16  1  0
 16 17  1  0
 17 18  1  0
 18 19  2  0
 18 20  1  0
 20 21  1  0
 21 22  1  0
 22 23  2  0
 22 24  1  0
 24 25  1  1
 24 26  1  0
 26 27  1  0
  9 28  1  0
 28 29  1  6
 28 30  1  0
  5 31  1  0
 31 32  2  0
 31 33  1  0
 33 34  1  0
 34 35  1  6
 35 36  1  0
 36 37  1  0
 37 38  2  0
 37 39  1  0
 34 40  1  0
 40 41  2  0
 40 42  1  0
 42 43  1  0
 43 44  1  1
 44 45  1  0
 45 46  1  0
 46 47  2  0
 46 48  1  0
 43 49  1  0
 49 50  2  0
 49 51  1  0
 52 51  1  1
 52 53  1  0
 53 54  2  0
 53 55  1  0
 55 56  1  0
 56 57  1  1
 57 58  1  0
 58 59  2  0
 58 60  1  0
 56 61  1  0
 61 62  2  0
 61 63  1  0
 52 64  1  0
 64 65  1  0
 64 66  1  0
 17 13  1  0
M  CHG  5  25   1  39  -1  48  -1  60  -1  63  -1
M  END
>  <shape_align_shape_tanimoto>  (2) 
0.31303101439350867

>  <shape_align_color_tanimoto>  (2) 
0.064574775930775166

>  <metric>  (2) 
color

>  <metric_score>  (2) 
0.065

>  <template_pid>  (2) 
6FDT

>  <template_shape_score>  (2) 
0.313

>  <template_color_score>  (2) 
0.065

>  <template_combo_score>  (2) 
0.189

$$$$
6FDT_combo_pose
     RDKit          3D

 66 66  0  0  0  0  0  0  0  0999 V2000
   10.4304    5.7598    6.5616 C   0  0  0  0  0  0  0  0  0  0  0  0
   10.4920    5.5243    5.1036 C   0  0  0  0  0  0  0  0  0  0  0  0
   10.2666    6.7034    4.2531 C   0  0  2  0  0  0  0  0  0  0  0  0
   11.2461    7.8227    4.5190 C   0  0  0  0  0  0  0  0  0  0  0  0
    8.8722    7.1633    4.0209 C   0  0  2  0  0  0  0  0  0  0  0  0
    8.9630    8.3400    3.1304 N   0  0  0  0  0  0  0  0  0  0  0  0
    8.2384    8.2598    1.9509 C   0  0  0  0  0  0  0  0  0  0  0  0
    7.5559    7.1956    1.7448 O   0  0  0  0  0  0  0  0  0  0  0  0
    8.1474    9.2572    0.8833 C   0  0  1  0  0  0  0  0  0  0  0  0
    8.9606   10.4099    1.0199 N   0  0  0  0  0  0  0  0  0  0  0  0
   10.3946   10.3870    1.1072 C   0  0  0  0  0  0  0  0  0  0  0  0
   10.9202    9.2716    1.0685 O   0  0  0  0  0  0  0  0  0  0  0  0
   11.0499   11.6792    1.2261 C   0  0  2  0  0  0  0  0  0  0  0  0
   10.8919   12.4730   -0.0668 C   0  0  0  0  0  0  0  0  0  0  0  0
   12.0062   13.4649    0.0139 C   0  0  0  0  0  0  0  0  0  0  0  0
   12.8126   13.1300    1.2254 C   0  0  0  0  0  0  0  0  0  0  0  0
   12.4530   11.7068    1.4033 N   0  0  0  0  0  0  0  0  0  0  0  0
   13.4458   10.7562    1.6870 C   0  0  0  0  0  0  0  0  0  0  0  0
   13.2465    9.5403    1.8928 O   0  0  0  0  0  0  0  0  0  0  0  0
   14.8885   11.1675    1.7621 C   0  0  0  0  0  0  0  0  0  0  0  0
   15.6483    9.9788    2.0662 N   0  0  0  0  0  0  0  0  0  0  0  0
   17.0488   10.1173    2.1842 C   0  0  0  0  0  0  0  0  0  0  0  0
   17.5834   11.2617    2.0198 O   0  0  0  0  0  0  0  0  0  0  0  0
   17.9265    8.9889    2.4915 C   0  0  1  0  0  0  0  0  0  0  0  0
   17.1617    7.7658    2.5954 N   0  0  0  0  0  0  0  0  0  0  0  0
   18.9777    8.7755    1.4277 C   0  0  0  0  0  0  0  0  0  0  0  0
   18.3994    8.4934    0.2139 O   0  0  0  0  0  0  0  0  0  0  0  0
    8.2446    8.5941   -0.4823 C   0  0  1  0  0  0  0  0  0  0  0  0
    7.8565    9.5385   -1.5880 C   0  0  0  0  0  0  0  0  0  0  0  0
    9.5247    8.1729   -0.7618 O   0  0  0  0  0  0  0  0  0  0  0  0
    8.1366    7.6064    5.2314 C   0  0  0  0  0  0  0  0  0  0  0  0
    7.5892    6.6338    5.8676 O   0  0  0  0  0  0  0  0  0  0  0  0
    8.0260    8.9305    5.6627 N   0  0  0  0  0  0  0  0  0  0  0  0
    7.3386    9.4791    6.7388 C   0  0  1  0  0  0  0  0  0  0  0  0
    7.8780    9.4059    8.1147 C   0  0  0  0  0  0  0  0  0  0  0  0
    8.0448    8.0485    8.6769 C   0  0  0  0  0  0  0  0  0  0  0  0
    6.7491    7.3338    8.8172 C   0  0  0  0  0  0  0  0  0  0  0  0
    6.8241    6.1281    9.1444 O   0  0  0  0  0  0  0  0  0  0  0  0
    5.5272    7.8806    8.6230 O   0  0  0  0  0  0  0  0  0  0  0  0
    6.9484   10.8666    6.4973 C   0  0  0  0  0  0  0  0  0  0  0  0
    6.2982   11.4258    7.4264 O   0  0  0  0  0  0  0  0  0  0  0  0
    7.2153   11.6422    5.3671 N   0  0  0  0  0  0  0  0  0  0  0  0
    6.7444   13.0565    5.3391 C   0  0  1  0  0  0  0  0  0  0  0  0
    7.9289   13.8854    5.7195 C   0  0  0  0  0  0  0  0  0  0  0  0
    7.8006   15.3518    5.7181 C   0  0  0  0  0  0  0  0  0  0  0  0
    7.6542   15.8999    4.3630 C   0  0  0  0  0  0  0  0  0  0  0  0
    7.1484   17.0194    4.2095 O   0  0  0  0  0  0  0  0  0  0  0  0
    8.0561   15.2362    3.2128 O   0  0  0  0  0  0  0  0  0  0  0  0
    6.1734   13.3500    4.0533 C   0  0  0  0  0  0  0  0  0  0  0  0
    6.5088   12.6728    3.0618 O   0  0  0  0  0  0  0  0  0  0  0  0
    5.2174   14.4207    3.9771 N   0  0  0  0  0  0  0  0  0  0  0  0
    4.5728   14.7963    2.7558 C   0  0  2  0  0  0  0  0  0  0  0  0
    4.1632   16.1872    2.6372 C   0  0  0  0  0  0  0  0  0  0  0  0
    3.7551   16.5488    1.4854 O   0  0  0  0  0  0  0  0  0  0  0  0
    4.1504   17.1859    3.6219 N   0  0  0  0  0  0  0  0  0  0  0  0
    3.6908   18.4808    3.2658 C   0  0  1  0  0  0  0  0  0  0  0  0
    2.3593   18.7478    3.9450 C   0  0  0  0  0  0  0  0  0  0  0  0
    2.5094   18.6903    5.4112 C   0  0  0  0  0  0  0  0  0  0  0  0
    3.5394   18.4389    6.0255 O   0  0  0  0  0  0  0  0  0  0  0  0
    1.3625   18.9501    6.1519 O   0  0  0  0  0  0  0  0  0  0  0  0
    4.5756   19.5961    3.6099 C   0  0  0  0  0  0  0  0  0  0  0  0
    5.5813   19.5655    4.3122 O   0  0  0  0  0  0  0  0  0  0  0  0
    4.2271   20.8393    3.0657 O   0  0  0  0  0  0  0  0  0  0  0  0
    3.2369   14.0290    2.6306 C   0  0  0  0  0  0  0  0  0  0  0  0
    3.5126   12.5650    2.6089 C   0  0  0  0  0  0  0  0  0  0  0  0
    2.3075   14.4113    3.7389 C   0  0  0  0  0  0  0  0  0  0  0  0
  1  2  1  0
  2  3  1  0
  3  4  1  1
  3  5  1  0
  5  6  1  6
  6  7  1  0
  7  8  2  0
  7  9  1  0
  9 10  1  1
 10 11  1  0
 11 12  2  0
 13 11  1  6
 13 14  1  0
 14 15  1  0
 15 16  1  0
 16 17  1  0
 17 18  1  0
 18 19  2  0
 18 20  1  0
 20 21  1  0
 21 22  1  0
 22 23  2  0
 22 24  1  0
 24 25  1  6
 24 26  1  0
 26 27  1  0
  9 28  1  0
 28 29  1  6
 28 30  1  0
  5 31  1  0
 31 32  2  0
 31 33  1  0
 33 34  1  0
 34 35  1  1
 35 36  1  0
 36 37  1  0
 37 38  2  0
 37 39  1  0
 34 40  1  0
 40 41  2  0
 40 42  1  0
 42 43  1  0
 43 44  1  6
 44 45  1  0
 45 46  1  0
 46 47  2  0
 46 48  1  0
 43 49  1  0
 49 50  2  0
 49 51  1  0
 52 51  1  1
 52 53  1  0
 53 54  2  0
 53 55  1  0
 55 56  1  0
 56 57  1  1
 57 58  1  0
 58 59  2  0
 58 60  1  0
 56 61  1  0
 61 62  2  0
 61 63  1  0
 52 64  1  0
 64 65  1  0
 64 66  1  0
 17 13  1  0
M  CHG  5  25   1  39  -1  48  -1  60  -1  63  -1
M  END
>  <shape_align_shape_tanimoto>  (3) 
0.37388133303280335

>  <shape_align_color_tanimoto>  (3) 
0.036403974836825365

>  <metric>  (3) 
combo

>  <metric_score>  (3) 
0.205

>  <template_pid>  (3) 
6FDT

>  <template_shape_score>  (3) 
0.374

>  <template_color_score>  (3) 
0.036

>  <template_combo_score>  (3) 
0.205

$$$$
