2J50_shape_pose
     RDKit          3D

 35 39  0  0  0  0  0  0  0  0999 V2000
  -13.9382    9.4831  -15.8338 C   0  0  0  0  0  0  0  0  0  0  0  0
  -14.1642   10.6356  -15.1262 O   0  0  0  0  0  0  0  0  0  0  0  0
  -13.0623   11.5076  -15.0874 C   0  0  1  0  0  0  0  0  0  0  0  0
  -13.4682   12.7748  -15.7056 C   0  0  0  0  0  0  0  0  0  0  0  0
  -14.7024   12.8977  -16.0105 O   0  0  0  0  0  0  0  0  0  0  0  0
  -12.5517   13.8444  -15.9713 N   0  0  0  0  0  0  0  0  0  0  0  0
  -11.1241   13.9072  -15.7346 C   0  0  0  0  0  0  0  0  0  0  0  0
  -10.6485   14.6803  -16.9128 C   0  0  0  0  0  0  0  0  0  0  0  0
   -9.5896   14.9566  -17.6940 N   0  0  0  0  0  0  0  0  0  0  0  0
   -9.9430   15.8253  -18.6541 N   0  0  0  0  0  0  0  0  0  0  0  0
  -11.2467   16.1099  -18.4862 C   0  0  0  0  0  0  0  0  0  0  0  0
  -12.0944   16.9733  -19.2348 N   0  0  0  0  0  0  0  0  0  0  0  0
  -12.7848   16.4016  -20.3374 C   0  0  0  0  0  0  0  0  0  0  0  0
  -12.5934   15.1825  -20.5682 O   0  0  0  0  0  0  0  0  0  0  0  0
  -13.6897   17.1553  -21.1954 C   0  0  0  0  0  0  0  0  0  0  0  0
  -14.3004   16.4900  -22.2358 C   0  0  0  0  0  0  0  0  0  0  0  0
  -15.1721   17.1582  -23.0760 C   0  0  0  0  0  0  0  0  0  0  0  0
  -15.4838   18.4938  -22.9396 C   0  0  0  0  0  0  0  0  0  0  0  0
  -16.3633   19.2014  -23.7776 N   0  0  0  0  0  0  0  0  0  0  0  0
  -16.9302   18.7171  -25.0071 C   0  0  0  0  0  0  0  0  0  0  0  0
  -18.4345   18.6982  -24.8954 C   0  0  0  0  0  0  0  0  0  0  0  0
  -18.9640   19.8675  -24.2449 N   0  0  0  0  0  0  0  0  0  0  0  0
  -19.5179   19.5054  -22.9522 C   0  0  0  0  0  0  0  0  0  0  0  0
  -18.0228   20.9549  -24.1187 C   0  0  0  0  0  0  0  0  0  0  0  0
  -16.7679   20.5555  -23.3817 C   0  0  0  0  0  0  0  0  0  0  0  0
  -14.8544   19.1508  -21.8790 C   0  0  0  0  0  0  0  0  0  0  0  0
  -13.9768   18.4797  -21.0324 C   0  0  0  0  0  0  0  0  0  0  0  0
  -11.7250   15.3982  -17.3882 C   0  0  0  0  0  0  0  0  0  0  0  0
  -12.9182   15.1202  -16.5526 C   0  0  0  0  0  0  0  0  0  0  0  0
  -12.7399   11.6404  -13.6360 C   0  0  0  0  0  0  0  0  0  0  0  0
  -12.4976   10.5335  -12.8528 C   0  0  0  0  0  0  0  0  0  0  0  0
  -12.2125   10.6367  -11.4877 C   0  0  0  0  0  0  0  0  0  0  0  0
  -12.1623   11.8602  -10.8664 C   0  0  0  0  0  0  0  0  0  0  0  0
  -12.4023   12.9769  -11.6354 C   0  0  0  0  0  0  0  0  0  0  0  0
  -12.6867   12.8682  -12.9973 C   0  0  0  0  0  0  0  0  0  0  0  0
  1  2  1  0
  3  2  1  1
  3  4  1  0
  4  5  2  0
  4  6  1  0
  6  7  1  0
  7  8  1  0
  8  9  1  0
  9 10  1  0
 10 11  2  0
 11 12  1  0
 12 13  1  0
 13 14  2  0
 13 15  1  0
 15 16  2  0
 16 17  1  0
 17 18  2  0
 18 19  1  0
 19 20  1  0
 20 21  1  0
 21 22  1  0
 22 23  1  0
 22 24  1  0
 24 25  1  0
 18 26  1  0
 26 27  2  0
 11 28  1  0
 28 29  1  0
  3 30  1  0
 30 31  2  0
 31 32  1  0
 32 33  2  0
 33 34  1  0
 34 35  2  0
 29  6  1  0
 35 30  1  0
 28  8  2  0
 27 15  1  0
 25 19  1  0
M  CHG  1  22   1
M  END
>  <shape_align_shape_tanimoto>  (1) 
0.45036050272087336

>  <shape_align_color_tanimoto>  (1) 
0.00355212109857732

>  <metric>  (1) 
shape

>  <metric_score>  (1) 
0.450

>  <template_pid>  (1) 
2J50

>  <template_shape_score>  (1) 
0.450

>  <template_color_score>  (1) 
0.004

>  <template_combo_score>  (1) 
0.227

$$$$
2J50_color_pose
     RDKit          3D

 35 39  0  0  0  0  0  0  0  0999 V2000
  -14.4722   18.7303  -17.8796 C   0  0  0  0  0  0  0  0  0  0  0  0
  -14.0889   17.5191  -18.4480 O   0  0  0  0  0  0  0  0  0  0  0  0
  -13.1245   17.7832  -19.3931 C   0  0  1  0  0  0  0  0  0  0  0  0
  -11.8754   17.0375  -19.1963 C   0  0  0  0  0  0  0  0  0  0  0  0
  -10.9378   17.2282  -20.0240 O   0  0  0  0  0  0  0  0  0  0  0  0
  -11.6387   16.1132  -18.1411 N   0  0  0  0  0  0  0  0  0  0  0  0
  -10.3492   15.4143  -18.0264 C   0  0  0  0  0  0  0  0  0  0  0  0
  -10.6444   14.3063  -17.1003 C   0  0  0  0  0  0  0  0  0  0  0  0
  -10.1289   13.1734  -16.5901 N   0  0  0  0  0  0  0  0  0  0  0  0
  -10.9928   12.6166  -15.7421 N   0  0  0  0  0  0  0  0  0  0  0  0
  -12.0778   13.3794  -15.6912 C   0  0  0  0  0  0  0  0  0  0  0  0
  -13.2867   13.2197  -14.9347 N   0  0  0  0  0  0  0  0  0  0  0  0
  -14.3299   12.4923  -15.5550 C   0  0  0  0  0  0  0  0  0  0  0  0
  -14.0981   12.0511  -16.7190 O   0  0  0  0  0  0  0  0  0  0  0  0
  -15.6148   12.2506  -14.9064 C   0  0  0  0  0  0  0  0  0  0  0  0
  -15.9183   12.7026  -13.6374 C   0  0  0  0  0  0  0  0  0  0  0  0
  -17.1590   12.4359  -13.0862 C   0  0  0  0  0  0  0  0  0  0  0  0
  -18.1402   11.7262  -13.7440 C   0  0  0  0  0  0  0  0  0  0  0  0
  -19.4120   11.4377  -13.1991 N   0  0  0  0  0  0  0  0  0  0  0  0
  -19.8170   11.7261  -11.8395 C   0  0  0  0  0  0  0  0  0  0  0  0
  -20.7747   12.8971  -11.8968 C   0  0  0  0  0  0  0  0  0  0  0  0
  -21.6049   12.7259  -13.0643 N   0  0  0  0  0  0  0  0  0  0  0  0
  -22.9057   13.2960  -12.7773 C   0  0  0  0  0  0  0  0  0  0  0  0
  -21.7556   11.3291  -13.4313 C   0  0  0  0  0  0  0  0  0  0  0  0
  -20.4437   10.8010  -14.0372 C   0  0  0  0  0  0  0  0  0  0  0  0
  -17.8303   11.2771  -15.0126 C   0  0  0  0  0  0  0  0  0  0  0  0
  -16.5795   11.5363  -15.5891 C   0  0  0  0  0  0  0  0  0  0  0  0
  -11.8918   14.4535  -16.5358 C   0  0  0  0  0  0  0  0  0  0  0  0
  -12.5171   15.7060  -17.0717 C   0  0  0  0  0  0  0  0  0  0  0  0
  -13.6474   17.4467  -20.7649 C   0  0  0  0  0  0  0  0  0  0  0  0
  -14.3202   16.2231  -20.8567 C   0  0  0  0  0  0  0  0  0  0  0  0
  -14.8364   15.8237  -22.0695 C   0  0  0  0  0  0  0  0  0  0  0  0
  -14.6636   16.6569  -23.1449 C   0  0  0  0  0  0  0  0  0  0  0  0
  -13.9962   17.8739  -23.0610 C   0  0  0  0  0  0  0  0  0  0  0  0
  -13.4763   18.2770  -21.8412 C   0  0  0  0  0  0  0  0  0  0  0  0
  1  2  1  0
  3  2  1  1
  3  4  1  0
  4  5  2  0
  4  6  1  0
  6  7  1  0
  7  8  1  0
  8  9  1  0
  9 10  1  0
 10 11  2  0
 11 12  1  0
 12 13  1  0
 13 14  2  0
 13 15  1  0
 15 16  2  0
 16 17  1  0
 17 18  2  0
 18 19  1  0
 19 20  1  0
 20 21  1  0
 21 22  1  0
 22 23  1  0
 22 24  1  0
 24 25  1  0
 18 26  1  0
 26 27  2  0
 11 28  1  0
 28 29  1  0
  3 30  1  0
 30 31  2  0
 31 32  1  0
 32 33  2  0
 33 34  1  0
 34 35  2  0
 29  6  1  0
 35 30  1  0
 28  8  2  0
 27 15  1  0
 25 19  1  0
M  CHG  1  22   1
M  END
>  <shape_align_shape_tanimoto>  (2) 
0.42028411888835676

>  <shape_align_color_tanimoto>  (2) 
0.046226581445384017

>  <metric>  (2) 
color

>  <metric_score>  (2) 
0.046

>  <template_pid>  (2) 
2J50

>  <template_shape_score>  (2) 
0.420

>  <template_color_score>  (2) 
0.046

>  <template_combo_score>  (2) 
0.233

$$$$
2J50_combo_pose
     RDKit          3D

 35 39  0  0  0  0  0  0  0  0999 V2000
  -14.4722   18.7303  -17.8796 C   0  0  0  0  0  0  0  0  0  0  0  0
  -14.0889   17.5191  -18.4480 O   0  0  0  0  0  0  0  0  0  0  0  0
  -13.1245   17.7832  -19.3931 C   0  0  1  0  0  0  0  0  0  0  0  0
  -11.8754   17.0375  -19.1963 C   0  0  0  0  0  0  0  0  0  0  0  0
  -10.9378   17.2282  -20.0240 O   0  0  0  0  0  0  0  0  0  0  0  0
  -11.6387   16.1132  -18.1411 N   0  0  0  0  0  0  0  0  0  0  0  0
  -10.3492   15.4143  -18.0264 C   0  0  0  0  0  0  0  0  0  0  0  0
  -10.6444   14.3063  -17.1003 C   0  0  0  0  0  0  0  0  0  0  0  0
  -10.1289   13.1734  -16.5901 N   0  0  0  0  0  0  0  0  0  0  0  0
  -10.9928   12.6166  -15.7421 N   0  0  0  0  0  0  0  0  0  0  0  0
  -12.0778   13.3794  -15.6912 C   0  0  0  0  0  0  0  0  0  0  0  0
  -13.2867   13.2197  -14.9347 N   0  0  0  0  0  0  0  0  0  0  0  0
  -14.3299   12.4923  -15.5550 C   0  0  0  0  0  0  0  0  0  0  0  0
  -14.0981   12.0511  -16.7190 O   0  0  0  0  0  0  0  0  0  0  0  0
  -15.6148   12.2506  -14.9064 C   0  0  0  0  0  0  0  0  0  0  0  0
  -15.9183   12.7026  -13.6374 C   0  0  0  0  0  0  0  0  0  0  0  0
  -17.1590   12.4359  -13.0862 C   0  0  0  0  0  0  0  0  0  0  0  0
  -18.1402   11.7262  -13.7440 C   0  0  0  0  0  0  0  0  0  0  0  0
  -19.4120   11.4377  -13.1991 N   0  0  0  0  0  0  0  0  0  0  0  0
  -19.8170   11.7261  -11.8395 C   0  0  0  0  0  0  0  0  0  0  0  0
  -20.7747   12.8971  -11.8968 C   0  0  0  0  0  0  0  0  0  0  0  0
  -21.6049   12.7259  -13.0643 N   0  0  0  0  0  0  0  0  0  0  0  0
  -22.9057   13.2960  -12.7773 C   0  0  0  0  0  0  0  0  0  0  0  0
  -21.7556   11.3291  -13.4313 C   0  0  0  0  0  0  0  0  0  0  0  0
  -20.4437   10.8010  -14.0372 C   0  0  0  0  0  0  0  0  0  0  0  0
  -17.8303   11.2771  -15.0126 C   0  0  0  0  0  0  0  0  0  0  0  0
  -16.5795   11.5363  -15.5891 C   0  0  0  0  0  0  0  0  0  0  0  0
  -11.8918   14.4535  -16.5358 C   0  0  0  0  0  0  0  0  0  0  0  0
  -12.5171   15.7060  -17.0717 C   0  0  0  0  0  0  0  0  0  0  0  0
  -13.6474   17.4467  -20.7649 C   0  0  0  0  0  0  0  0  0  0  0  0
  -14.3202   16.2231  -20.8567 C   0  0  0  0  0  0  0  0  0  0  0  0
  -14.8364   15.8237  -22.0695 C   0  0  0  0  0  0  0  0  0  0  0  0
  -14.6636   16.6569  -23.1449 C   0  0  0  0  0  0  0  0  0  0  0  0
  -13.9962   17.8739  -23.0610 C   0  0  0  0  0  0  0  0  0  0  0  0
  -13.4763   18.2770  -21.8412 C   0  0  0  0  0  0  0  0  0  0  0  0
  1  2  1  0
  3  2  1  1
  3  4  1  0
  4  5  2  0
  4  6  1  0
  6  7  1  0
  7  8  1  0
  8  9  1  0
  9 10  1  0
 10 11  2  0
 11 12  1  0
 12 13  1  0
 13 14  2  0
 13 15  1  0
 15 16  2  0
 16 17  1  0
 17 18  2  0
 18 19  1  0
 19 20  1  0
 20 21  1  0
 21 22  1  0
 22 23  1  0
 22 24  1  0
 24 25  1  0
 18 26  1  0
 26 27  2  0
 11 28  1  0
 28 29  1  0
  3 30  1  0
 30 31  2  0
 31 32  1  0
 32 33  2  0
 33 34  1  0
 34 35  2  0
 29  6  1  0
 35 30  1  0
 28  8  2  0
 27 15  1  0
 25 19  1  0
M  CHG  1  22   1
M  END
>  <shape_align_shape_tanimoto>  (3) 
0.42028411888835676

>  <shape_align_color_tanimoto>  (3) 
0.046226581445384017

>  <metric>  (3) 
combo

>  <metric_score>  (3) 
0.233

>  <template_pid>  (3) 
2J50

>  <template_shape_score>  (3) 
0.420

>  <template_color_score>  (3) 
0.046

>  <template_combo_score>  (3) 
0.233

$$$$
