6K3L_shape_pose
     RDKit          3D

 25 28  0  0  0  0  0  0  0  0999 V2000
   12.3042   -4.9460   12.5157 O   0  0  0  0  0  0  0  0  0  0  0  0
   13.4664   -4.6909   12.0848 C   0  0  0  0  0  0  0  0  0  0  0  0
   14.4839   -5.6422   12.2589 O   0  0  0  0  0  0  0  0  0  0  0  0
   13.7694   -3.4228   11.4082 C   0  0  0  0  0  0  0  0  0  0  0  0
   12.7601   -2.5128   11.2507 C   0  0  0  0  0  0  0  0  0  0  0  0
   13.0242   -1.2953   10.6086 C   0  0  0  0  0  0  0  0  0  0  0  0
   14.2857   -1.0161   10.1403 C   0  0  0  0  0  0  0  0  0  0  0  0
   15.2618   -1.9668   10.3258 C   0  0  0  0  0  0  0  0  0  0  0  0
   15.0471   -3.1763   10.9510 C   0  0  0  0  0  0  0  0  0  0  0  0
   16.4974   -1.7166    9.8779 N   0  0  0  0  0  0  0  0  0  0  0  0
   16.8917   -0.6006    9.2485 C   0  0  0  0  0  0  0  0  0  0  0  0
   18.2093   -0.3811    8.7945 N   0  0  0  0  0  0  0  0  0  0  0  0
   19.3014   -1.2596    8.9990 C   0  0  0  0  0  0  0  0  0  0  0  0
   19.3210   -2.2800    9.9157 C   0  0  0  0  0  0  0  0  0  0  0  0
   20.4415   -3.1002   10.0327 C   0  0  0  0  0  0  0  0  0  0  0  0
   21.5644   -2.9372    9.2547 C   0  0  0  0  0  0  0  0  0  0  0  0
   21.5489   -1.9148    8.3342 C   0  0  0  0  0  0  0  0  0  0  0  0
   22.9649   -1.6807    7.3285 Cl  0  0  0  0  0  0  0  0  0  0  0  0
   20.4516   -1.1136    8.2215 C   0  0  0  0  0  0  0  0  0  0  0  0
   15.9060    0.3636    9.0595 C   0  0  0  0  0  0  0  0  0  0  0  0
   16.1464    1.5654    8.4334 C   0  0  0  0  0  0  0  0  0  0  0  0
   15.1651    2.5234    8.2479 C   0  0  0  0  0  0  0  0  0  0  0  0
   13.9211    2.2847    8.6922 N   0  0  0  0  0  0  0  0  0  0  0  0
   13.6186    1.1110    9.3220 C   0  0  0  0  0  0  0  0  0  0  0  0
   14.5979    0.1625    9.5036 C   0  0  0  0  0  0  0  0  0  0  0  0
  1  2  2  0
  2  3  1  0
  2  4  1  0
  4  5  2  0
  5  6  1  0
  6  7  2  0
  7  8  1  0
  8  9  2  0
  8 10  1  0
 10 11  2  0
 11 12  1  0
 12 13  1  0
 13 14  2  0
 14 15  1  0
 15 16  2  0
 16 17  1  0
 17 18  1  0
 17 19  2  0
 11 20  1  0
 20 21  2  0
 21 22  1  0
 22 23  2  0
 23 24  1  0
 24 25  2  0
  9  4  1  0
 19 13  1  0
 25 20  1  0
 25  7  1  0
M  CHG  1   3  -1
M  END
>  <shape_align_shape_tanimoto>  (1) 
0.75002718081586861

>  <shape_align_color_tanimoto>  (1) 
0.13934690239759356

>  <metric>  (1) 
shape

>  <metric_score>  (1) 
0.750

>  <template_pid>  (1) 
6K3L

>  <template_shape_score>  (1) 
0.750

>  <template_color_score>  (1) 
0.139

>  <template_combo_score>  (1) 
0.445

$$$$
6K3L_color_pose
     RDKit          3D

 25 28  0  0  0  0  0  0  0  0999 V2000
   12.8466   -0.2785   10.1744 O   0  0  0  0  0  0  0  0  0  0  0  0
   13.5136   -1.3092   10.5277 C   0  0  0  0  0  0  0  0  0  0  0  0
   12.8080   -2.2734   11.2260 O   0  0  0  0  0  0  0  0  0  0  0  0
   14.9289   -1.4446   10.2081 C   0  0  0  0  0  0  0  0  0  0  0  0
   15.5751   -2.5872   10.6251 C   0  0  0  0  0  0  0  0  0  0  0  0
   16.9279   -2.7817   10.3547 C   0  0  0  0  0  0  0  0  0  0  0  0
   17.5742   -1.8028    9.6684 C   0  0  0  0  0  0  0  0  0  0  0  0
   16.9257   -0.6607    9.2523 C   0  0  0  0  0  0  0  0  0  0  0  0
   15.5760   -0.4457    9.5109 C   0  0  0  0  0  0  0  0  0  0  0  0
   17.5557    0.3284    8.5686 N   0  0  0  0  0  0  0  0  0  0  0  0
   18.8584    0.2295    8.2667 C   0  0  0  0  0  0  0  0  0  0  0  0
   19.5881    1.2127    7.5489 N   0  0  0  0  0  0  0  0  0  0  0  0
   20.1349    2.3706    8.1592 C   0  0  0  0  0  0  0  0  0  0  0  0
   20.9704    3.2540    7.4767 C   0  0  0  0  0  0  0  0  0  0  0  0
   21.4614    4.3739    8.1226 C   0  0  0  0  0  0  0  0  0  0  0  0
   21.1467    4.6526    9.4440 C   0  0  0  0  0  0  0  0  0  0  0  0
   20.3073    3.7697   10.1378 C   0  0  0  0  0  0  0  0  0  0  0  0
   19.8779    4.0920   11.8274 Cl  0  0  0  0  0  0  0  0  0  0  0  0
   19.8125    2.6406    9.4871 C   0  0  0  0  0  0  0  0  0  0  0  0
   19.5224   -0.9047    8.6744 C   0  0  0  0  0  0  0  0  0  0  0  0
   20.8720   -1.0466    8.3790 C   0  0  0  0  0  0  0  0  0  0  0  0
   21.5746   -2.1684    8.7664 C   0  0  0  0  0  0  0  0  0  0  0  0
   20.9395   -3.1355    9.4395 N   0  0  0  0  0  0  0  0  0  0  0  0
   19.6122   -3.0369    9.7512 C   0  0  0  0  0  0  0  0  0  0  0  0
   18.9117   -1.9280    9.3699 C   0  0  0  0  0  0  0  0  0  0  0  0
  1  2  2  0
  2  3  1  0
  2  4  1  0
  4  5  2  0
  5  6  1  0
  6  7  2  0
  7  8  1  0
  8  9  2  0
  8 10  1  0
 10 11  2  0
 11 12  1  0
 12 13  1  0
 13 14  2  0
 14 15  1  0
 15 16  2  0
 16 17  1  0
 17 18  1  0
 17 19  2  0
 11 20  1  0
 20 21  2  0
 21 22  1  0
 22 23  2  0
 23 24  1  0
 24 25  2  0
  9  4  1  0
 19 13  1  0
 25 20  1  0
 25  7  1  0
M  CHG  1   3  -1
M  END
>  <shape_align_shape_tanimoto>  (2) 
0.59981872681131276

>  <shape_align_color_tanimoto>  (2) 
0.1724538576312743

>  <metric>  (2) 
color

>  <metric_score>  (2) 
0.172

>  <template_pid>  (2) 
6K3L

>  <template_shape_score>  (2) 
0.600

>  <template_color_score>  (2) 
0.172

>  <template_combo_score>  (2) 
0.386

$$$$
6K3L_combo_pose
     RDKit          3D

 25 28  0  0  0  0  0  0  0  0999 V2000
   12.3090   -4.8991   12.5182 O   0  0  0  0  0  0  0  0  0  0  0  0
   13.4744   -4.6451   12.0787 C   0  0  0  0  0  0  0  0  0  0  0  0
   14.4326   -5.6118   12.2696 O   0  0  0  0  0  0  0  0  0  0  0  0
   13.7974   -3.3947   11.4029 C   0  0  0  0  0  0  0  0  0  0  0  0
   12.7953   -2.4769   11.2481 C   0  0  0  0  0  0  0  0  0  0  0  0
   13.0755   -1.2651   10.6026 C   0  0  0  0  0  0  0  0  0  0  0  0
   14.3330   -0.9960   10.1306 C   0  0  0  0  0  0  0  0  0  0  0  0
   15.3016   -1.9557   10.3142 C   0  0  0  0  0  0  0  0  0  0  0  0
   15.0669   -3.1598   10.9435 C   0  0  0  0  0  0  0  0  0  0  0  0
   16.5325   -1.7030    9.8574 N   0  0  0  0  0  0  0  0  0  0  0  0
   16.9270   -0.5936    9.2289 C   0  0  0  0  0  0  0  0  0  0  0  0
   18.2341   -0.3834    8.7743 N   0  0  0  0  0  0  0  0  0  0  0  0
   19.3337   -1.2589    8.9781 C   0  0  0  0  0  0  0  0  0  0  0  0
   19.3620   -2.2766    9.8947 C   0  0  0  0  0  0  0  0  0  0  0  0
   20.4710   -3.1078   10.0360 C   0  0  0  0  0  0  0  0  0  0  0  0
   21.5952   -2.9379    9.2520 C   0  0  0  0  0  0  0  0  0  0  0  0
   21.5808   -1.9285    8.3357 C   0  0  0  0  0  0  0  0  0  0  0  0
   22.9900   -1.6859    7.3259 Cl  0  0  0  0  0  0  0  0  0  0  0  0
   20.4895   -1.1119    8.1977 C   0  0  0  0  0  0  0  0  0  0  0  0
   15.9425    0.3794    9.0438 C   0  0  0  0  0  0  0  0  0  0  0  0
   16.1891    1.5770    8.4181 C   0  0  0  0  0  0  0  0  0  0  0  0
   15.2123    2.5419    8.2369 C   0  0  0  0  0  0  0  0  0  0  0  0
   13.9667    2.3165    8.6843 N   0  0  0  0  0  0  0  0  0  0  0  0
   13.6681    1.1392    9.3152 C   0  0  0  0  0  0  0  0  0  0  0  0
   14.6384    0.1830    9.4941 C   0  0  0  0  0  0  0  0  0  0  0  0
  1  2  2  0
  2  3  1  0
  2  4  1  0
  4  5  2  0
  5  6  1  0
  6  7  2  0
  7  8  1  0
  8  9  2  0
  8 10  1  0
 10 11  2  0
 11 12  1  0
 12 13  1  0
 13 14  2  0
 14 15  1  0
 15 16  2  0
 16 17  1  0
 17 18  1  0
 17 19  2  0
 11 20  1  0
 20 21  2  0
 21 22  1  0
 22 23  2  0
 23 24  1  0
 24 25  2  0
  9  4  1  0
 19 13  1  0
 25 20  1  0
 25  7  1  0
M  CHG  1   3  -1
M  END
>  <shape_align_shape_tanimoto>  (3) 
0.74946660760580064

>  <shape_align_color_tanimoto>  (3) 
0.14048783368610018

>  <metric>  (3) 
combo

>  <metric_score>  (3) 
0.445

>  <template_pid>  (3) 
6K3L

>  <template_shape_score>  (3) 
0.749

>  <template_color_score>  (3) 
0.140

>  <template_combo_score>  (3) 
0.445

$$$$
