4NAL_shape_pose
     RDKit          3D

 17 18  0  0  0  0  0  0  0  0999 V2000
   39.3618  -39.1718   12.6730 O   0  0  0  0  0  0  0  0  0  0  0  0
   40.6033  -39.7337   12.5794 C   0  0  0  0  0  0  0  0  0  0  0  0
   40.6876  -40.9383   11.8828 C   0  0  0  0  0  0  0  0  0  0  0  0
   39.2498  -41.6544   11.1909 Cl  0  0  0  0  0  0  0  0  0  0  0  0
   41.8782  -41.5794   11.7259 C   0  0  0  0  0  0  0  0  0  0  0  0
   42.9919  -41.0068   12.2724 C   0  0  0  0  0  0  0  0  0  0  0  0
   44.5336  -41.8105   12.0875 Cl  0  0  0  0  0  0  0  0  0  0  0  0
   42.9071  -39.8234   12.9569 C   0  0  0  0  0  0  0  0  0  0  0  0
   41.6979  -39.1324   13.1407 C   0  0  0  0  0  0  0  0  0  0  0  0
   41.7239  -37.9274   13.9327 C   0  0  0  0  0  0  0  0  0  0  0  0
   42.8893  -37.2705   14.2113 N   0  0  0  0  0  0  0  0  0  0  0  0
   42.6730  -36.2115   14.9908 C   0  0  0  0  0  0  0  0  0  0  0  0
   43.9866  -34.9808   15.6491 Br  0  0  0  0  0  0  0  0  0  0  0  0
   41.3396  -36.1222   15.2644 C   0  0  0  0  0  0  0  0  0  0  0  0
   40.4966  -34.8048   16.3239 Br  0  0  0  0  0  0  0  0  0  0  0  0
   40.7649  -37.2101   14.5905 C   0  0  0  0  0  0  0  0  0  0  0  0
   38.8963  -37.5446   14.7126 Br  0  0  0  0  0  0  0  0  0  0  0  0
  1  2  1  0
  2  3  2  0
  3  4  1  0
  3  5  1  0
  5  6  2  0
  6  7  1  0
  6  8  1  0
  8  9  2  0
  9 10  1  0
 10 11  1  0
 11 12  1  0
 12 13  1  0
 12 14  2  0
 14 15  1  0
 14 16  1  0
 16 17  1  0
  9  2  1  0
 16 10  2  0
M  END
>  <shape_align_shape_tanimoto>  (1) 
0.54725459400601406

>  <shape_align_color_tanimoto>  (1) 
0.0087839388275009912

>  <metric>  (1) 
shape

>  <metric_score>  (1) 
0.547

>  <template_pid>  (1) 
4NAL

>  <template_shape_score>  (1) 
0.547

>  <template_color_score>  (1) 
0.009

>  <template_combo_score>  (1) 
0.278

$$$$
4NAL_color_pose
     RDKit          3D

 17 18  0  0  0  0  0  0  0  0999 V2000
   40.7587  -39.7013   14.9821 O   0  0  0  0  0  0  0  0  0  0  0  0
   41.2259  -38.8900   13.9647 C   0  0  0  0  0  0  0  0  0  0  0  0
   41.4653  -39.5590   12.7532 C   0  0  0  0  0  0  0  0  0  0  0  0
   41.1781  -41.2764   12.6032 Cl  0  0  0  0  0  0  0  0  0  0  0  0
   41.9313  -38.8942   11.6466 C   0  0  0  0  0  0  0  0  0  0  0  0
   42.1554  -37.5459   11.7691 C   0  0  0  0  0  0  0  0  0  0  0  0
   42.7491  -36.6795   10.3717 Cl  0  0  0  0  0  0  0  0  0  0  0  0
   41.9151  -36.8818   12.9806 C   0  0  0  0  0  0  0  0  0  0  0  0
   41.4485  -37.5331   14.0977 C   0  0  0  0  0  0  0  0  0  0  0  0
   41.1909  -36.8563   15.3745 C   0  0  0  0  0  0  0  0  0  0  0  0
   40.7404  -37.4337   16.4881 N   0  0  0  0  0  0  0  0  0  0  0  0
   40.6106  -36.5205   17.4949 C   0  0  0  0  0  0  0  0  0  0  0  0
   40.0088  -36.8229   19.2802 Br  0  0  0  0  0  0  0  0  0  0  0  0
   40.9909  -35.2979   17.0214 C   0  0  0  0  0  0  0  0  0  0  0  0
   41.0141  -33.6579   17.9870 Br  0  0  0  0  0  0  0  0  0  0  0  0
   41.3535  -35.5224   15.6875 C   0  0  0  0  0  0  0  0  0  0  0  0
   41.9634  -34.0830   14.5971 Br  0  0  0  0  0  0  0  0  0  0  0  0
  1  2  1  0
  2  3  2  0
  3  4  1  0
  3  5  1  0
  5  6  2  0
  6  7  1  0
  6  8  1  0
  8  9  2  0
  9 10  1  0
 10 11  1  0
 11 12  1  0
 12 13  1  0
 12 14  2  0
 14 15  1  0
 14 16  1  0
 16 17  1  0
  9  2  1  0
 16 10  2  0
M  END
>  <shape_align_shape_tanimoto>  (2) 
0.47197588681961383

>  <shape_align_color_tanimoto>  (2) 
0.055364717179688161

>  <metric>  (2) 
color

>  <metric_score>  (2) 
0.055

>  <template_pid>  (2) 
4NAL

>  <template_shape_score>  (2) 
0.472

>  <template_color_score>  (2) 
0.055

>  <template_combo_score>  (2) 
0.264

$$$$
4NAL_combo_pose
     RDKit          3D

 17 18  0  0  0  0  0  0  0  0999 V2000
   39.3618  -39.1718   12.6730 O   0  0  0  0  0  0  0  0  0  0  0  0
   40.6033  -39.7337   12.5794 C   0  0  0  0  0  0  0  0  0  0  0  0
   40.6876  -40.9383   11.8828 C   0  0  0  0  0  0  0  0  0  0  0  0
   39.2498  -41.6544   11.1909 Cl  0  0  0  0  0  0  0  0  0  0  0  0
   41.8782  -41.5794   11.7259 C   0  0  0  0  0  0  0  0  0  0  0  0
   42.9919  -41.0068   12.2724 C   0  0  0  0  0  0  0  0  0  0  0  0
   44.5336  -41.8105   12.0875 Cl  0  0  0  0  0  0  0  0  0  0  0  0
   42.9071  -39.8234   12.9569 C   0  0  0  0  0  0  0  0  0  0  0  0
   41.6979  -39.1324   13.1407 C   0  0  0  0  0  0  0  0  0  0  0  0
   41.7239  -37.9274   13.9327 C   0  0  0  0  0  0  0  0  0  0  0  0
   42.8893  -37.2705   14.2113 N   0  0  0  0  0  0  0  0  0  0  0  0
   42.6730  -36.2115   14.9908 C   0  0  0  0  0  0  0  0  0  0  0  0
   43.9866  -34.9808   15.6491 Br  0  0  0  0  0  0  0  0  0  0  0  0
   41.3396  -36.1222   15.2644 C   0  0  0  0  0  0  0  0  0  0  0  0
   40.4966  -34.8048   16.3239 Br  0  0  0  0  0  0  0  0  0  0  0  0
   40.7649  -37.2101   14.5905 C   0  0  0  0  0  0  0  0  0  0  0  0
   38.8963  -37.5446   14.7126 Br  0  0  0  0  0  0  0  0  0  0  0  0
  1  2  1  0
  2  3  2  0
  3  4  1  0
  3  5  1  0
  5  6  2  0
  6  7  1  0
  6  8  1  0
  8  9  2  0
  9 10  1  0
 10 11  1  0
 11 12  1  0
 12 13  1  0
 12 14  2  0
 14 15  1  0
 14 16  1  0
 16 17  1  0
  9  2  1  0
 16 10  2  0
M  END
>  <shape_align_shape_tanimoto>  (3) 
0.54725459400601406

>  <shape_align_color_tanimoto>  (3) 
0.0087839388275009912

>  <metric>  (3) 
combo

>  <metric_score>  (3) 
0.278

>  <template_pid>  (3) 
4NAL

>  <template_shape_score>  (3) 
0.547

>  <template_color_score>  (3) 
0.009

>  <template_combo_score>  (3) 
0.278

$$$$
