6QXD_shape_pose
     RDKit          3D

 28 30  0  0  0  0  0  0  0  0999 V2000
    6.4906   -2.7092   22.1906 O   0  0  0  0  0  0  0  0  0  0  0  0
    5.5283   -2.6198   21.3557 C   0  0  0  0  0  0  0  0  0  0  0  0
    5.8715   -2.5612   19.9479 C   0  0  0  0  0  0  0  0  0  0  0  0
    5.9980   -3.6678   19.1374 C   0  0  0  0  0  0  0  0  0  0  0  0
    6.3296   -3.5412   17.7926 C   0  0  0  0  0  0  0  0  0  0  0  0
    6.5356   -2.2871   17.2602 C   0  0  0  0  0  0  0  0  0  0  0  0
    6.8775   -2.1182   15.8839 N   0  0  0  0  0  0  0  0  0  0  0  0
    6.9947   -3.1130   15.1405 O   0  0  0  0  0  0  0  0  0  0  0  0
    7.0694   -0.8400   15.4169 O   0  0  0  0  0  0  0  0  0  0  0  0
    6.4106   -1.1745   18.0661 C   0  0  0  0  0  0  0  0  0  0  0  0
    6.0786   -1.2855   19.4165 C   0  0  0  0  0  0  0  0  0  0  0  0
    5.9659   -0.1086   20.1903 N   0  0  0  0  0  0  0  0  0  0  0  0
    6.6382    0.8973   19.8407 O   0  0  0  0  0  0  0  0  0  0  0  0
    5.1838    0.0322   21.2940 O   0  0  0  0  0  0  0  0  0  0  0  0
    4.1695   -2.5778   21.7726 N   0  0  0  0  0  0  0  0  0  0  0  0
    3.0721   -2.4801   20.8654 C   0  0  0  0  0  0  0  0  0  0  0  0
    1.8374   -3.2185   21.2498 C   0  0  0  0  0  0  0  0  0  0  0  0
    1.7539   -3.6769   22.5890 N   0  0  0  0  0  0  0  0  0  0  0  0
    2.1611   -5.0399   22.8049 C   0  0  0  0  0  0  0  0  0  0  0  0
    2.4005   -5.8331   21.5918 C   0  0  0  0  0  0  0  0  0  0  0  0
    1.3115   -6.5347   21.0579 C   0  0  0  0  0  0  0  0  0  0  0  0
    1.4582   -7.3071   19.9136 C   0  0  0  0  0  0  0  0  0  0  0  0
    2.6931   -7.3905   19.2857 C   0  0  0  0  0  0  0  0  0  0  0  0
    2.8328   -8.1558   18.1541 F   0  0  0  0  0  0  0  0  0  0  0  0
    3.7416   -6.6903   19.8342 C   0  0  0  0  0  0  0  0  0  0  0  0
    3.6330   -5.9192   20.9610 C   0  0  0  0  0  0  0  0  0  0  0  0
    2.4278   -2.7533   23.4904 C   0  0  0  0  0  0  0  0  0  0  0  0
    3.8971   -2.6357   23.1899 C   0  0  0  0  0  0  0  0  0  0  0  0
  1  2  2  0
  2  3  1  0
  3  4  2  0
  4  5  1  0
  5  6  2  0
  6  7  1  0
  7  8  2  0
  7  9  1  0
  6 10  1  0
 10 11  2  0
 11 12  1  0
 12 13  2  0
 12 14  1  0
  2 15  1  0
 15 16  1  0
 16 17  1  0
 17 18  1  0
 18 19  1  0
 19 20  1  0
 20 21  2  0
 21 22  1  0
 22 23  2  0
 23 24  1  0
 23 25  1  0
 25 26  2  0
 18 27  1  0
 27 28  1  0
 11  3  1  0
 28 15  1  0
 26 20  1  0
M  CHG  5   7   1   9  -1  12   1  14  -1  18   1
M  END
>  <shape_align_shape_tanimoto>  (1) 
0.67681055107086263

>  <shape_align_color_tanimoto>  (1) 
0.016338816315049541

>  <metric>  (1) 
shape

>  <metric_score>  (1) 
0.677

>  <template_pid>  (1) 
6QXD

>  <template_shape_score>  (1) 
0.677

>  <template_color_score>  (1) 
0.016

>  <template_combo_score>  (1) 
0.347

$$$$
6QXD_color_pose
     RDKit          3D

 28 30  0  0  0  0  0  0  0  0999 V2000
    5.3549    0.0806   18.3698 O   0  0  0  0  0  0  0  0  0  0  0  0
    5.6152   -1.0817   18.7862 C   0  0  0  0  0  0  0  0  0  0  0  0
    5.9958   -2.1328   17.8528 C   0  0  0  0  0  0  0  0  0  0  0  0
    4.9877   -2.9103   17.3110 C   0  0  0  0  0  0  0  0  0  0  0  0
    5.3017   -3.9208   16.4212 C   0  0  0  0  0  0  0  0  0  0  0  0
    6.6189   -4.1565   16.0716 C   0  0  0  0  0  0  0  0  0  0  0  0
    6.9467   -5.1818   15.1679 N   0  0  0  0  0  0  0  0  0  0  0  0
    6.0402   -5.8931   14.6708 O   0  0  0  0  0  0  0  0  0  0  0  0
    8.2450   -5.4251   14.8140 O   0  0  0  0  0  0  0  0  0  0  0  0
    7.6013   -3.3652   16.6280 C   0  0  0  0  0  0  0  0  0  0  0  0
    7.3261   -2.3472   17.5196 C   0  0  0  0  0  0  0  0  0  0  0  0
    8.3249   -1.5258   18.0991 N   0  0  0  0  0  0  0  0  0  0  0  0
    9.4677   -2.0145   18.2242 O   0  0  0  0  0  0  0  0  0  0  0  0
    8.0714   -0.2337   18.5169 O   0  0  0  0  0  0  0  0  0  0  0  0
    5.5527   -1.4217   20.1592 N   0  0  0  0  0  0  0  0  0  0  0  0
    5.8493   -2.7556   20.6539 C   0  0  0  0  0  0  0  0  0  0  0  0
    5.5576   -2.8895   22.1243 C   0  0  0  0  0  0  0  0  0  0  0  0
    4.3840   -2.2643   22.5957 N   0  0  0  0  0  0  0  0  0  0  0  0
    3.2171   -3.0944   22.7379 C   0  0  0  0  0  0  0  0  0  0  0  0
    3.1620   -4.2676   21.8683 C   0  0  0  0  0  0  0  0  0  0  0  0
    3.6380   -5.5237   22.2046 C   0  0  0  0  0  0  0  0  0  0  0  0
    3.5751   -6.6089   21.3679 C   0  0  0  0  0  0  0  0  0  0  0  0
    3.0146   -6.4844   20.1141 C   0  0  0  0  0  0  0  0  0  0  0  0
    2.9175   -7.5098   19.2342 F   0  0  0  0  0  0  0  0  0  0  0  0
    2.5298   -5.2550   19.7405 C   0  0  0  0  0  0  0  0  0  0  0  0
    2.5990   -4.1669   20.5937 C   0  0  0  0  0  0  0  0  0  0  0  0
    3.9831   -1.0855   21.8624 C   0  0  0  0  0  0  0  0  0  0  0  0
    5.1792   -0.4418   21.1931 C   0  0  0  0  0  0  0  0  0  0  0  0
  1  2  2  0
  2  3  1  0
  3  4  2  0
  4  5  1  0
  5  6  2  0
  6  7  1  0
  7  8  2  0
  7  9  1  0
  6 10  1  0
 10 11  2  0
 11 12  1  0
 12 13  2  0
 12 14  1  0
  2 15  1  0
 15 16  1  0
 16 17  1  0
 17 18  1  0
 18 19  1  0
 19 20  1  0
 20 21  2  0
 21 22  1  0
 22 23  2  0
 23 24  1  0
 23 25  1  0
 25 26  2  0
 18 27  1  0
 27 28  1  0
 11  3  1  0
 28 15  1  0
 26 20  1  0
M  CHG  5   7   1   9  -1  12   1  14  -1  18   1
M  END
>  <shape_align_shape_tanimoto>  (2) 
0.57368566450117209

>  <shape_align_color_tanimoto>  (2) 
0.11885579491945067

>  <metric>  (2) 
color

>  <metric_score>  (2) 
0.119

>  <template_pid>  (2) 
6QXD

>  <template_shape_score>  (2) 
0.574

>  <template_color_score>  (2) 
0.119

>  <template_combo_score>  (2) 
0.346

$$$$
6QXD_combo_pose
     RDKit          3D

 28 30  0  0  0  0  0  0  0  0999 V2000
    4.8956    0.3200   18.7551 O   0  0  0  0  0  0  0  0  0  0  0  0
    5.5775   -0.6774   19.2142 C   0  0  0  0  0  0  0  0  0  0  0  0
    6.4205   -1.4737   18.3077 C   0  0  0  0  0  0  0  0  0  0  0  0
    7.7495   -1.2014   18.0324 C   0  0  0  0  0  0  0  0  0  0  0  0
    8.4311   -2.0481   17.1465 C   0  0  0  0  0  0  0  0  0  0  0  0
    7.8113   -3.1304   16.5538 C   0  0  0  0  0  0  0  0  0  0  0  0
    8.5047   -4.0116   15.6376 N   0  0  0  0  0  0  0  0  0  0  0  0
    9.7100   -3.8441   15.3276 O   0  0  0  0  0  0  0  0  0  0  0  0
    7.8255   -5.0799   15.0770 O   0  0  0  0  0  0  0  0  0  0  0  0
    6.4763   -3.4253   16.8141 C   0  0  0  0  0  0  0  0  0  0  0  0
    5.7949   -2.5840   17.6959 C   0  0  0  0  0  0  0  0  0  0  0  0
    4.4078   -2.9073   17.9535 N   0  0  0  0  0  0  0  0  0  0  0  0
    3.9980   -4.0973   17.8544 O   0  0  0  0  0  0  0  0  0  0  0  0
    3.4935   -1.9149   18.3162 O   0  0  0  0  0  0  0  0  0  0  0  0
    5.5363   -1.0354   20.5983 N   0  0  0  0  0  0  0  0  0  0  0  0
    6.3129   -2.1795   21.1501 C   0  0  0  0  0  0  0  0  0  0  0  0
    5.5147   -2.8365   22.3069 C   0  0  0  0  0  0  0  0  0  0  0  0
    4.1066   -2.5953   22.0153 N   0  0  0  0  0  0  0  0  0  0  0  0
    3.1962   -3.5694   22.6124 C   0  0  0  0  0  0  0  0  0  0  0  0
    2.8849   -4.7023   21.6759 C   0  0  0  0  0  0  0  0  0  0  0  0
    1.8083   -4.6569   20.7889 C   0  0  0  0  0  0  0  0  0  0  0  0
    1.4987   -5.6994   19.9071 C   0  0  0  0  0  0  0  0  0  0  0  0
    2.2973   -6.8397   19.9081 C   0  0  0  0  0  0  0  0  0  0  0  0
    2.0249   -7.8889   19.0540 F   0  0  0  0  0  0  0  0  0  0  0  0
    3.3688   -6.9229   20.7683 C   0  0  0  0  0  0  0  0  0  0  0  0
    3.6625   -5.8815   21.6359 C   0  0  0  0  0  0  0  0  0  0  0  0
    3.7887   -1.2251   22.3549 C   0  0  0  0  0  0  0  0  0  0  0  0
    4.7219   -0.2956   21.5716 C   0  0  0  0  0  0  0  0  0  0  0  0
  1  2  2  0
  2  3  1  0
  3  4  2  0
  4  5  1  0
  5  6  2  0
  6  7  1  0
  7  8  2  0
  7  9  1  0
  6 10  1  0
 10 11  2  0
 11 12  1  0
 12 13  2  0
 12 14  1  0
  2 15  1  0
 15 16  1  0
 16 17  1  0
 17 18  1  0
 18 19  1  0
 19 20  1  0
 20 21  2  0
 21 22  1  0
 22 23  2  0
 23 24  1  0
 23 25  1  0
 25 26  2  0
 18 27  1  0
 27 28  1  0
 11  3  1  0
 28 15  1  0
 26 20  1  0
M  CHG  5   7   1   9  -1  12   1  14  -1  18   1
M  END
>  <shape_align_shape_tanimoto>  (3) 
0.60408458604994975

>  <shape_align_color_tanimoto>  (3) 
0.11568437759609485

>  <metric>  (3) 
combo

>  <metric_score>  (3) 
0.360

>  <template_pid>  (3) 
6QXD

>  <template_shape_score>  (3) 
0.604

>  <template_color_score>  (3) 
0.116

>  <template_combo_score>  (3) 
0.360

$$$$
