6HLX_shape_pose
     RDKit          3D

 20 20  0  0  0  0  0  0  0  0999 V2000
  -16.5411  -29.8376   15.0378 O   0  0  0  0  0  0  0  0  0  0  0  0
  -15.6960  -28.8851   15.1639 C   0  0  0  0  0  0  0  0  0  0  0  0
  -15.7743  -27.7508   14.3307 O   0  0  0  0  0  0  0  0  0  0  0  0
  -14.6227  -28.9381   16.1707 C   0  0  2  0  0  0  0  0  0  0  0  0
  -14.4605  -30.3768   16.5734 C   0  0  0  0  0  0  0  0  0  0  0  0
  -14.4210  -30.3589   18.0701 C   0  0  0  0  0  0  0  0  0  0  0  0
  -14.2460  -28.9448   18.4063 C   0  0  0  0  0  0  0  0  0  0  0  0
  -13.6462  -28.4832   19.4395 O   0  0  0  0  0  0  0  0  0  0  0  0
  -14.8693  -28.1543   17.3666 N   0  0  0  0  0  0  0  0  0  0  0  0
  -15.5251  -26.8943   17.5562 C   0  0  0  0  0  0  0  0  0  0  0  0
  -16.9635  -26.8972   17.8751 C   0  0  1  0  0  0  0  0  0  0  0  0
  -17.6046  -27.5499   16.7861 O   0  0  0  0  0  0  0  0  0  0  0  0
  -17.4235  -27.4590   19.1668 C   0  0  1  0  0  0  0  0  0  0  0  0
  -17.1302  -28.8262   19.3320 O   0  0  0  0  0  0  0  0  0  0  0  0
  -17.3608  -26.6419   20.3798 C   0  0  2  0  0  0  0  0  0  0  0  0
  -17.6349  -25.2845   20.1316 O   0  0  0  0  0  0  0  0  0  0  0  0
  -16.2330  -26.7406   21.3233 C   0  0  2  0  0  0  0  0  0  0  0  0
  -15.0331  -26.1753   20.9439 O   0  0  0  0  0  0  0  0  0  0  0  0
  -16.0643  -28.1092   21.9449 C   0  0  0  0  0  0  0  0  0  0  0  0
  -17.3224  -28.6424   22.3190 O   0  0  0  0  0  0  0  0  0  0  0  0
  1  2  2  0
  2  3  1  0
  4  2  1  6
  4  5  1  0
  5  6  1  0
  6  7  1  0
  7  8  2  0
  7  9  1  0
  9 10  1  0
 10 11  1  0
 11 12  1  6
 11 13  1  0
 13 14  1  1
 13 15  1  0
 15 16  1  6
 15 17  1  0
 17 18  1  6
 17 19  1  0
 19 20  1  0
  9  4  1  0
M  CHG  1   3  -1
M  END
>  <shape_align_shape_tanimoto>  (1) 
0.71773427182481131

>  <shape_align_color_tanimoto>  (1) 
0.16434175052557784

>  <metric>  (1) 
shape

>  <metric_score>  (1) 
0.718

>  <template_pid>  (1) 
6HLX

>  <template_shape_score>  (1) 
0.718

>  <template_color_score>  (1) 
0.164

>  <template_combo_score>  (1) 
0.441

$$$$
6HLX_color_pose
     RDKit          3D

 20 20  0  0  0  0  0  0  0  0999 V2000
  -18.4002  -28.1622   22.3127 O   0  0  0  0  0  0  0  0  0  0  0  0
  -18.1062  -27.7327   21.1650 C   0  0  0  0  0  0  0  0  0  0  0  0
  -19.1595  -27.3816   20.3370 O   0  0  0  0  0  0  0  0  0  0  0  0
  -16.6775  -27.6210   20.7513 C   0  0  2  0  0  0  0  0  0  0  0  0
  -16.0961  -26.3369   21.3184 C   0  0  0  0  0  0  0  0  0  0  0  0
  -16.9860  -25.3149   20.6061 C   0  0  0  0  0  0  0  0  0  0  0  0
  -17.0620  -25.9365   19.2411 C   0  0  0  0  0  0  0  0  0  0  0  0
  -17.4062  -25.3967   18.1591 O   0  0  0  0  0  0  0  0  0  0  0  0
  -16.6668  -27.3139   19.3308 N   0  0  0  0  0  0  0  0  0  0  0  0
  -16.3314  -28.1955   18.2175 C   0  0  0  0  0  0  0  0  0  0  0  0
  -14.8533  -28.1247   17.9036 C   0  0  1  0  0  0  0  0  0  0  0  0
  -14.1333  -28.5090   19.0475 O   0  0  0  0  0  0  0  0  0  0  0  0
  -14.4314  -29.0343   16.7816 C   0  0  1  0  0  0  0  0  0  0  0  0
  -14.7201  -30.3652   17.0847 O   0  0  0  0  0  0  0  0  0  0  0  0
  -15.0049  -28.6554   15.4607 C   0  0  2  0  0  0  0  0  0  0  0  0
  -16.3662  -28.7992   15.3622 O   0  0  0  0  0  0  0  0  0  0  0  0
  -14.3958  -29.4666   14.3197 C   0  0  2  0  0  0  0  0  0  0  0  0
  -12.9993  -29.3517   14.3766 O   0  0  0  0  0  0  0  0  0  0  0  0
  -14.8610  -28.7976   13.0394 C   0  0  0  0  0  0  0  0  0  0  0  0
  -14.4525  -27.4688   13.1247 O   0  0  0  0  0  0  0  0  0  0  0  0
  1  2  2  0
  2  3  1  0
  4  2  1  1
  4  5  1  0
  5  6  1  0
  6  7  1  0
  7  8  2  0
  7  9  1  0
  9 10  1  0
 10 11  1  0
 11 12  1  1
 11 13  1  0
 13 14  1  1
 13 15  1  0
 15 16  1  1
 15 17  1  0
 17 18  1  1
 17 19  1  0
 19 20  1  0
  9  4  1  0
M  CHG  1   3  -1
M  END
>  <shape_align_shape_tanimoto>  (2) 
0.61853391218819831

>  <shape_align_color_tanimoto>  (2) 
0.20953493193343437

>  <metric>  (2) 
color

>  <metric_score>  (2) 
0.210

>  <template_pid>  (2) 
6HLX

>  <template_shape_score>  (2) 
0.619

>  <template_color_score>  (2) 
0.210

>  <template_combo_score>  (2) 
0.414

$$$$
6HLX_combo_pose
     RDKit          3D

 20 20  0  0  0  0  0  0  0  0999 V2000
  -16.5411  -29.8376   15.0378 O   0  0  0  0  0  0  0  0  0  0  0  0
  -15.6960  -28.8851   15.1639 C   0  0  0  0  0  0  0  0  0  0  0  0
  -15.7743  -27.7508   14.3307 O   0  0  0  0  0  0  0  0  0  0  0  0
  -14.6227  -28.9381   16.1707 C   0  0  2  0  0  0  0  0  0  0  0  0
  -14.4605  -30.3768   16.5734 C   0  0  0  0  0  0  0  0  0  0  0  0
  -14.4210  -30.3589   18.0701 C   0  0  0  0  0  0  0  0  0  0  0  0
  -14.2460  -28.9448   18.4063 C   0  0  0  0  0  0  0  0  0  0  0  0
  -13.6462  -28.4832   19.4395 O   0  0  0  0  0  0  0  0  0  0  0  0
  -14.8693  -28.1543   17.3666 N   0  0  0  0  0  0  0  0  0  0  0  0
  -15.5251  -26.8943   17.5562 C   0  0  0  0  0  0  0  0  0  0  0  0
  -16.9635  -26.8972   17.8751 C   0  0  1  0  0  0  0  0  0  0  0  0
  -17.6046  -27.5499   16.7861 O   0  0  0  0  0  0  0  0  0  0  0  0
  -17.4235  -27.4590   19.1668 C   0  0  1  0  0  0  0  0  0  0  0  0
  -17.1302  -28.8262   19.3320 O   0  0  0  0  0  0  0  0  0  0  0  0
  -17.3608  -26.6419   20.3798 C   0  0  2  0  0  0  0  0  0  0  0  0
  -17.6349  -25.2845   20.1316 O   0  0  0  0  0  0  0  0  0  0  0  0
  -16.2330  -26.7406   21.3233 C   0  0  2  0  0  0  0  0  0  0  0  0
  -15.0331  -26.1753   20.9439 O   0  0  0  0  0  0  0  0  0  0  0  0
  -16.0643  -28.1092   21.9449 C   0  0  0  0  0  0  0  0  0  0  0  0
  -17.3224  -28.6424   22.3190 O   0  0  0  0  0  0  0  0  0  0  0  0
  1  2  2  0
  2  3  1  0
  4  2  1  6
  4  5  1  0
  5  6  1  0
  6  7  1  0
  7  8  2  0
  7  9  1  0
  9 10  1  0
 10 11  1  0
 11 12  1  6
 11 13  1  0
 13 14  1  1
 13 15  1  0
 15 16  1  6
 15 17  1  0
 17 18  1  6
 17 19  1  0
 19 20  1  0
  9  4  1  0
M  CHG  1   3  -1
M  END
>  <shape_align_shape_tanimoto>  (3) 
0.71773427182481131

>  <shape_align_color_tanimoto>  (3) 
0.16434175052557784

>  <metric>  (3) 
combo

>  <metric_score>  (3) 
0.441

>  <template_pid>  (3) 
6HLX

>  <template_shape_score>  (3) 
0.718

>  <template_color_score>  (3) 
0.164

>  <template_combo_score>  (3) 
0.441

$$$$
