6OS5_shape_pose
     RDKit          3D

 15 16  0  0  0  0  0  0  0  0999 V2000
    5.8271   11.6582   57.4056 N   0  0  0  0  0  0  0  0  0  0  0  0
    6.6192   11.7904   56.1784 C   0  0  1  0  0  0  0  0  0  0  0  0
    7.9576   12.3284   56.5530 C   0  0  0  0  0  0  0  0  0  0  0  0
    8.9233   12.5308   55.4598 C   0  0  0  0  0  0  0  0  0  0  0  0
    8.8995   13.7207   54.7003 C   0  0  0  0  0  0  0  0  0  0  0  0
    9.8402   13.6353   53.7225 N   0  0  0  0  0  0  0  0  0  0  0  0
   10.4633   12.4277   53.8363 C   0  0  0  0  0  0  0  0  0  0  0  0
   11.4953   11.9130   53.0837 C   0  0  0  0  0  0  0  0  0  0  0  0
   11.9752   10.6509   53.4429 C   0  0  0  0  0  0  0  0  0  0  0  0
   11.4099    9.9657   54.5245 C   0  0  0  0  0  0  0  0  0  0  0  0
   10.3842   10.4844   55.2638 C   0  0  0  0  0  0  0  0  0  0  0  0
    9.9010   11.7395   54.9114 C   0  0  0  0  0  0  0  0  0  0  0  0
    6.5518   10.5952   55.3644 C   0  0  0  0  0  0  0  0  0  0  0  0
    7.4190    9.7448   55.1062 O   0  0  0  0  0  0  0  0  0  0  0  0
    5.2927   10.3335   54.7460 O   0  0  0  0  0  0  0  0  0  0  0  0
  2  1  1  1
  2  3  1  0
  3  4  1  0
  4  5  2  0
  5  6  1  0
  6  7  1  0
  7  8  2  0
  8  9  1  0
  9 10  2  0
 10 11  1  0
 11 12  2  0
  2 13  1  0
 13 14  2  0
 13 15  1  0
 12  4  1  0
 12  7  1  0
M  CHG  2   1   1  15  -1
M  END
>  <shape_align_shape_tanimoto>  (1) 
0.23910483423477116

>  <shape_align_color_tanimoto>  (1) 
0.01829801902698763

>  <metric>  (1) 
shape

>  <metric_score>  (1) 
0.239

>  <template_pid>  (1) 
6OS5

>  <template_shape_score>  (1) 
0.239

>  <template_color_score>  (1) 
0.018

>  <template_combo_score>  (1) 
0.129

$$$$
6OS5_color_pose
     RDKit          3D

 15 16  0  0  0  0  0  0  0  0999 V2000
   12.2159   13.2895   53.5434 N   0  0  0  0  0  0  0  0  0  0  0  0
   11.5837   11.9902   53.1441 C   0  0  1  0  0  0  0  0  0  0  0  0
   11.8613   10.9754   54.1717 C   0  0  0  0  0  0  0  0  0  0  0  0
   11.3539    9.6213   54.0238 C   0  0  0  0  0  0  0  0  0  0  0  0
   11.4349    8.7001   55.0926 C   0  0  0  0  0  0  0  0  0  0  0  0
   10.8981    7.5545   54.6832 N   0  0  0  0  0  0  0  0  0  0  0  0
   10.4637    7.6244   53.4355 C   0  0  0  0  0  0  0  0  0  0  0  0
    9.8548    6.6915   52.6313 C   0  0  0  0  0  0  0  0  0  0  0  0
    9.4999    7.0446   51.3336 C   0  0  0  0  0  0  0  0  0  0  0  0
    9.7862    8.3329   50.9269 C   0  0  0  0  0  0  0  0  0  0  0  0
   10.3976    9.2569   51.7470 C   0  0  0  0  0  0  0  0  0  0  0  0
   10.7483    8.9224   53.0160 C   0  0  0  0  0  0  0  0  0  0  0  0
   10.1186   12.3338   53.1929 C   0  0  0  0  0  0  0  0  0  0  0  0
    9.7058   13.1970   52.3602 O   0  0  0  0  0  0  0  0  0  0  0  0
    9.2588   11.7330   54.1089 O   0  0  0  0  0  0  0  0  0  0  0  0
  2  1  1  1
  2  3  1  0
  3  4  1  0
  4  5  2  0
  5  6  1  0
  6  7  1  0
  7  8  2  0
  8  9  1  0
  9 10  2  0
 10 11  1  0
 11 12  2  0
  2 13  1  0
 13 14  2  0
 13 15  1  0
 12  4  1  0
 12  7  1  0
M  CHG  2   1   1  15  -1
M  END
>  <shape_align_shape_tanimoto>  (2) 
0.22132651507449574

>  <shape_align_color_tanimoto>  (2) 
0.079532656461932472

>  <metric>  (2) 
color

>  <metric_score>  (2) 
0.080

>  <template_pid>  (2) 
6OS5

>  <template_shape_score>  (2) 
0.221

>  <template_color_score>  (2) 
0.080

>  <template_combo_score>  (2) 
0.150

$$$$
6OS5_combo_pose
     RDKit          3D

 15 16  0  0  0  0  0  0  0  0999 V2000
   12.2159   13.2895   53.5434 N   0  0  0  0  0  0  0  0  0  0  0  0
   11.5837   11.9902   53.1441 C   0  0  1  0  0  0  0  0  0  0  0  0
   11.8613   10.9754   54.1717 C   0  0  0  0  0  0  0  0  0  0  0  0
   11.3539    9.6213   54.0238 C   0  0  0  0  0  0  0  0  0  0  0  0
   11.4349    8.7001   55.0926 C   0  0  0  0  0  0  0  0  0  0  0  0
   10.8981    7.5545   54.6832 N   0  0  0  0  0  0  0  0  0  0  0  0
   10.4637    7.6244   53.4355 C   0  0  0  0  0  0  0  0  0  0  0  0
    9.8548    6.6915   52.6313 C   0  0  0  0  0  0  0  0  0  0  0  0
    9.4999    7.0446   51.3336 C   0  0  0  0  0  0  0  0  0  0  0  0
    9.7862    8.3329   50.9269 C   0  0  0  0  0  0  0  0  0  0  0  0
   10.3976    9.2569   51.7470 C   0  0  0  0  0  0  0  0  0  0  0  0
   10.7483    8.9224   53.0160 C   0  0  0  0  0  0  0  0  0  0  0  0
   10.1186   12.3338   53.1929 C   0  0  0  0  0  0  0  0  0  0  0  0
    9.7058   13.1970   52.3602 O   0  0  0  0  0  0  0  0  0  0  0  0
    9.2588   11.7330   54.1089 O   0  0  0  0  0  0  0  0  0  0  0  0
  2  1  1  1
  2  3  1  0
  3  4  1  0
  4  5  2  0
  5  6  1  0
  6  7  1  0
  7  8  2  0
  8  9  1  0
  9 10  2  0
 10 11  1  0
 11 12  2  0
  2 13  1  0
 13 14  2  0
 13 15  1  0
 12  4  1  0
 12  7  1  0
M  CHG  2   1   1  15  -1
M  END
>  <shape_align_shape_tanimoto>  (3) 
0.22132651507449574

>  <shape_align_color_tanimoto>  (3) 
0.079532656461932472

>  <metric>  (3) 
combo

>  <metric_score>  (3) 
0.150

>  <template_pid>  (3) 
6OS5

>  <template_shape_score>  (3) 
0.221

>  <template_color_score>  (3) 
0.080

>  <template_combo_score>  (3) 
0.150

$$$$
