6OY0_shape_pose
     RDKit          3D

 42 45  0  0  0  0  0  0  0  0999 V2000
    9.0696   -3.9687   13.3360 C   0  0  0  0  0  0  0  0  0  0  0  0
    9.1304   -4.6015   14.6904 C   0  0  0  0  0  0  0  0  0  0  0  0
    8.2490   -3.8277   15.6987 C   0  0  2  0  0  0  0  0  0  0  0  0
    8.3246   -4.4754   17.0343 C   0  0  0  0  0  0  0  0  0  0  0  0
    6.9168   -3.6451   15.0888 C   0  0  0  0  0  0  0  0  0  0  0  0
    5.8981   -2.9722   15.8130 N   0  0  0  0  0  0  0  0  0  0  0  0
    6.2896   -1.7527   16.3247 C   0  0  0  0  0  0  0  0  0  0  0  0
    5.5952   -0.5161   15.9311 C   0  0  1  0  0  0  0  0  0  0  0  0
    6.0864    0.6555   16.4958 O   0  0  0  0  0  0  0  0  0  0  0  0
    5.7721   -0.3152   14.4067 C   0  0  2  0  0  0  0  0  0  0  0  0
    7.2231   -0.0535   14.2159 C   0  0  0  0  0  0  0  0  0  0  0  0
    7.7467    0.1753   12.8446 C   0  0  0  0  0  0  0  0  0  0  0  0
    9.2930    0.3890   12.9191 C   0  0  0  0  0  0  0  0  0  0  0  0
    9.7817    0.1728   11.5028 C   0  0  0  0  0  0  0  0  0  0  0  0
    9.2150    1.2359   10.5813 C   0  0  0  0  0  0  0  0  0  0  0  0
    7.7423    1.3927   10.7276 C   0  0  0  0  0  0  0  0  0  0  0  0
    7.2723    1.4455   12.1873 C   0  0  0  0  0  0  0  0  0  0  0  0
    4.9902    0.8385   13.9988 N   0  0  0  0  0  0  0  0  0  0  0  0
    3.8295    0.5389   13.1900 C   0  0  0  0  0  0  0  0  0  0  0  0
    3.5538   -0.6456   12.8837 O   0  0  0  0  0  0  0  0  0  0  0  0
    3.0711    1.6326   12.7939 O   0  0  0  0  0  0  0  0  0  0  0  0
    1.9373    1.3890   12.0082 C   0  0  1  0  0  0  0  0  0  0  0  0
    0.6612    1.8842   12.6499 C   0  0  0  0  0  0  0  0  0  0  0  0
   -0.2375    2.1702   11.6567 O   0  0  0  0  0  0  0  0  0  0  0  0
    0.4070    2.1059   10.4392 C   0  0  1  0  0  0  0  0  0  0  0  0
    0.1151    3.2588    9.7304 O   0  0  0  0  0  0  0  0  0  0  0  0
    1.0595    4.2024   10.0181 C   0  0  0  0  0  0  0  0  0  0  0  0
    2.1419    3.5993   10.8540 C   0  0  0  0  0  0  0  0  0  0  0  0
    1.9003    2.1287   10.7137 C   0  0  1  0  0  0  0  0  0  0  0  0
    4.7580   -3.9510   16.4488 S   0  0  0  0  0  0  0  0  0  0  0  0
    5.4132   -4.9920   17.3086 O   0  0  0  0  0  0  0  0  0  0  0  0
    3.7572   -3.3202   17.3782 O   0  0  0  0  0  0  0  0  0  0  0  0
    3.8005   -4.9208   15.3041 C   0  0  0  0  0  0  0  0  0  0  0  0
    2.9503   -5.8306   16.1669 C   0  0  0  0  0  0  0  0  0  0  0  0
    1.9649   -6.6438   15.3951 C   0  0  0  0  0  0  0  0  0  0  0  0
    1.0141   -5.7965   14.6170 C   0  0  0  0  0  0  0  0  0  0  0  0
    0.8127   -6.3795   13.2297 C   0  0  2  0  0  0  0  0  0  0  0  0
    1.9698   -6.4655   12.4927 O   0  0  0  0  0  0  0  0  0  0  0  0
   -0.2893   -5.6427   12.4812 C   0  0  0  0  0  0  0  0  0  0  0  0
   -0.5338   -6.3665   11.3049 O   0  0  0  0  0  0  0  0  0  0  0  0
    1.4364   -4.3653   14.6141 C   0  0  0  0  0  0  0  0  0  0  0  0
    2.9281   -4.1676   14.3861 C   0  0  0  0  0  0  0  0  0  0  0  0
  1  2  1  0
  2  3  1  0
  3  4  1  1
  3  5  1  0
  5  6  1  0
  6  7  1  0
  7  8  1  0
  8  9  1  1
  8 10  1  0
 10 11  1  1
 11 12  1  0
 12 13  1  0
 13 14  1  0
 14 15  1  0
 15 16  1  0
 16 17  1  0
 10 18  1  0
 18 19  1  0
 19 20  2  0
 19 21  1  0
 22 21  1  1
 22 23  1  0
 23 24  1  0
 25 24  1  1
 25 26  1  0
 26 27  1  0
 27 28  1  0
 29 28  1  1
  6 30  1  0
 30 31  2  0
 30 32  2  0
 30 33  1  0
 33 34  1  0
 34 35  1  0
 35 36  1  0
 36 37  1  0
 37 38  1  6
 37 39  1  0
 39 40  1  0
 36 41  1  0
 41 42  1  0
 17 12  1  0
 29 22  1  0
 42 33  1  0
 29 25  1  0
M  END
>  <shape_align_shape_tanimoto>  (1) 
0.62441118692629149

>  <shape_align_color_tanimoto>  (1) 
0.057800035765416494

>  <metric>  (1) 
shape

>  <metric_score>  (1) 
0.624

>  <template_pid>  (1) 
6OY0

>  <template_shape_score>  (1) 
0.624

>  <template_color_score>  (1) 
0.058

>  <template_combo_score>  (1) 
0.341

$$$$
6OY0_color_pose
     RDKit          3D

 42 45  0  0  0  0  0  0  0  0999 V2000
    9.0382   -5.0513   16.0995 C   0  0  0  0  0  0  0  0  0  0  0  0
    8.1191   -3.9638   16.6229 C   0  0  0  0  0  0  0  0  0  0  0  0
    6.8878   -3.9756   15.7467 C   0  0  2  0  0  0  0  0  0  0  0  0
    7.2691   -3.6986   14.2920 C   0  0  0  0  0  0  0  0  0  0  0  0
    5.8638   -2.9595   16.1888 C   0  0  0  0  0  0  0  0  0  0  0  0
    4.7669   -2.9976   15.3565 N   0  0  0  0  0  0  0  0  0  0  0  0
    4.3628   -1.9680   14.5200 C   0  0  0  0  0  0  0  0  0  0  0  0
    4.1080   -0.6068   15.0745 C   0  0  1  0  0  0  0  0  0  0  0  0
    5.2351   -0.0475   15.6739 O   0  0  0  0  0  0  0  0  0  0  0  0
    3.7441    0.3755   13.9415 C   0  0  2  0  0  0  0  0  0  0  0  0
    2.3890    0.1532   13.4971 C   0  0  0  0  0  0  0  0  0  0  0  0
    1.7428    0.9357   12.4133 C   0  0  0  0  0  0  0  0  0  0  0  0
    2.3721    0.8719   11.0669 C   0  0  0  0  0  0  0  0  0  0  0  0
    3.0894    2.0459   10.5472 C   0  0  0  0  0  0  0  0  0  0  0  0
    2.5808    3.3917   10.9325 C   0  0  0  0  0  0  0  0  0  0  0  0
    1.2725    3.3067   11.6792 C   0  0  0  0  0  0  0  0  0  0  0  0
    1.3258    2.3298   12.8254 C   0  0  0  0  0  0  0  0  0  0  0  0
    4.8573    0.3972   13.0709 N   0  0  0  0  0  0  0  0  0  0  0  0
    5.7860    1.5085   13.0656 C   0  0  0  0  0  0  0  0  0  0  0  0
    5.6321    2.4932   13.8395 O   0  0  0  0  0  0  0  0  0  0  0  0
    6.8572    1.5213   12.2199 O   0  0  0  0  0  0  0  0  0  0  0  0
    7.8392    2.5112   12.0918 C   0  0  1  0  0  0  0  0  0  0  0  0
    9.2403    1.9620   12.1412 C   0  0  0  0  0  0  0  0  0  0  0  0
    9.8551    2.1987   10.9407 O   0  0  0  0  0  0  0  0  0  0  0  0
    9.1623    3.1467   10.2297 C   0  0  1  0  0  0  0  0  0  0  0  0
    9.1974    2.7844    8.8889 O   0  0  0  0  0  0  0  0  0  0  0  0
    8.1825    1.8631    8.6956 C   0  0  0  0  0  0  0  0  0  0  0  0
    7.1501    2.0460    9.7459 C   0  0  0  0  0  0  0  0  0  0  0  0
    7.7476    3.0624   10.6810 C   0  0  1  0  0  0  0  0  0  0  0  0
    3.4313   -3.8872   15.9327 S   0  0  0  0  0  0  0  0  0  0  0  0
    2.2581   -3.7966   14.9571 O   0  0  0  0  0  0  0  0  0  0  0  0
    2.9141   -3.2404   17.2022 O   0  0  0  0  0  0  0  0  0  0  0  0
    3.7234   -5.5935   16.1919 C   0  0  0  0  0  0  0  0  0  0  0  0
    2.4745   -6.2990   16.7204 C   0  0  0  0  0  0  0  0  0  0  0  0
    2.7860   -7.7268   17.0908 C   0  0  0  0  0  0  0  0  0  0  0  0
    3.4939   -8.4682   15.9949 C   0  0  0  0  0  0  0  0  0  0  0  0
    3.8670   -9.8364   16.4312 C   0  0  2  0  0  0  0  0  0  0  0  0
    4.7152   -9.8905   17.5358 O   0  0  0  0  0  0  0  0  0  0  0  0
    4.5394  -10.6519   15.3480 C   0  0  0  0  0  0  0  0  0  0  0  0
    3.7990  -10.6879   14.1632 O   0  0  0  0  0  0  0  0  0  0  0  0
    4.6408   -7.6769   15.4187 C   0  0  0  0  0  0  0  0  0  0  0  0
    4.0799   -6.3339   14.9255 C   0  0  0  0  0  0  0  0  0  0  0  0
  1  2  1  0
  2  3  1  0
  3  4  1  6
  3  5  1  0
  5  6  1  0
  6  7  1  0
  7  8  1  0
  8  9  1  6
  8 10  1  0
 10 11  1  6
 11 12  1  0
 12 13  1  0
 13 14  1  0
 14 15  1  0
 15 16  1  0
 16 17  1  0
 10 18  1  0
 18 19  1  0
 19 20  2  0
 19 21  1  0
 22 21  1  6
 22 23  1  0
 23 24  1  0
 25 24  1  1
 25 26  1  0
 26 27  1  0
 27 28  1  0
 29 28  1  6
  6 30  1  0
 30 31  2  0
 30 32  2  0
 30 33  1  0
 33 34  1  0
 34 35  1  0
 35 36  1  0
 36 37  1  0
 37 38  1  1
 37 39  1  0
 39 40  1  0
 36 41  1  0
 41 42  1  0
 17 12  1  0
 29 22  1  0
 42 33  1  0
 29 25  1  0
M  END
>  <shape_align_shape_tanimoto>  (2) 
0.53416022689105658

>  <shape_align_color_tanimoto>  (2) 
0.092809805918521213

>  <metric>  (2) 
color

>  <metric_score>  (2) 
0.093

>  <template_pid>  (2) 
6OY0

>  <template_shape_score>  (2) 
0.534

>  <template_color_score>  (2) 
0.093

>  <template_combo_score>  (2) 
0.313

$$$$
6OY0_combo_pose
     RDKit          3D

 42 45  0  0  0  0  0  0  0  0999 V2000
    9.5867   -4.4381   17.0736 C   0  0  0  0  0  0  0  0  0  0  0  0
    8.2991   -5.0820   16.6791 C   0  0  0  0  0  0  0  0  0  0  0  0
    7.4330   -4.2523   15.7574 C   0  0  2  0  0  0  0  0  0  0  0  0
    8.2278   -3.9903   14.4964 C   0  0  0  0  0  0  0  0  0  0  0  0
    7.0181   -3.0163   16.4934 C   0  0  0  0  0  0  0  0  0  0  0  0
    6.2059   -2.0868   15.8543 N   0  0  0  0  0  0  0  0  0  0  0  0
    6.6682   -0.7463   16.0562 C   0  0  0  0  0  0  0  0  0  0  0  0
    7.6670   -0.1899   15.1405 C   0  0  1  0  0  0  0  0  0  0  0  0
    8.8773   -0.9275   15.1568 O   0  0  0  0  0  0  0  0  0  0  0  0
    7.2806    0.1396   13.7250 C   0  0  2  0  0  0  0  0  0  0  0  0
    8.3924    0.9176   13.1010 C   0  0  0  0  0  0  0  0  0  0  0  0
    8.3175    1.3795   11.7188 C   0  0  0  0  0  0  0  0  0  0  0  0
    7.2206    2.3348   11.3414 C   0  0  0  0  0  0  0  0  0  0  0  0
    6.4330    1.8937   10.1239 C   0  0  0  0  0  0  0  0  0  0  0  0
    7.3733    1.7054    8.9535 C   0  0  0  0  0  0  0  0  0  0  0  0
    8.5940    0.9304    9.3202 C   0  0  0  0  0  0  0  0  0  0  0  0
    8.4272    0.2673   10.6827 C   0  0  0  0  0  0  0  0  0  0  0  0
    6.0803    0.9236   13.7434 N   0  0  0  0  0  0  0  0  0  0  0  0
    4.9586    0.4794   12.9836 C   0  0  0  0  0  0  0  0  0  0  0  0
    4.9655   -0.5739   12.2956 O   0  0  0  0  0  0  0  0  0  0  0  0
    3.8214    1.3121   13.0551 O   0  0  0  0  0  0  0  0  0  0  0  0
    2.7002    0.8874   12.3084 C   0  0  1  0  0  0  0  0  0  0  0  0
    1.4675    0.6948   13.1524 C   0  0  0  0  0  0  0  0  0  0  0  0
    0.3949    1.2796   12.5219 O   0  0  0  0  0  0  0  0  0  0  0  0
    0.7669    1.5640   11.2160 C   0  0  1  0  0  0  0  0  0  0  0  0
    0.2155    2.7494   10.7385 O   0  0  0  0  0  0  0  0  0  0  0  0
    0.8544    3.8087   11.3539 C   0  0  0  0  0  0  0  0  0  0  0  0
    2.1711    3.2981   11.8877 C   0  0  0  0  0  0  0  0  0  0  0  0
    2.2379    1.9120   11.3142 C   0  0  1  0  0  0  0  0  0  0  0  0
    4.5180   -2.1616   16.0415 S   0  0  0  0  0  0  0  0  0  0  0  0
    4.1552   -1.9966   17.5434 O   0  0  0  0  0  0  0  0  0  0  0  0
    3.7655   -1.0274   15.4179 O   0  0  0  0  0  0  0  0  0  0  0  0
    3.7762   -3.6604   15.4538 C   0  0  0  0  0  0  0  0  0  0  0  0
    3.9113   -4.8151   16.4004 C   0  0  0  0  0  0  0  0  0  0  0  0
    3.5017   -6.0881   15.6893 C   0  0  0  0  0  0  0  0  0  0  0  0
    2.2366   -5.9530   14.9292 C   0  0  0  0  0  0  0  0  0  0  0  0
    2.3721   -6.4546   13.4868 C   0  0  2  0  0  0  0  0  0  0  0  0
    1.1367   -6.2742   12.8377 O   0  0  0  0  0  0  0  0  0  0  0  0
    2.6223   -7.9482   13.4217 C   0  0  0  0  0  0  0  0  0  0  0  0
    3.8087   -8.3108   14.0128 O   0  0  0  0  0  0  0  0  0  0  0  0
    1.5196   -4.6648   14.9848 C   0  0  0  0  0  0  0  0  0  0  0  0
    2.2331   -3.4493   15.4032 C   0  0  0  0  0  0  0  0  0  0  0  0
  1  2  1  0
  2  3  1  0
  3  4  1  6
  3  5  1  0
  5  6  1  0
  6  7  1  0
  7  8  1  0
  8  9  1  6
  8 10  1  0
 10 11  1  1
 11 12  1  0
 12 13  1  0
 13 14  1  0
 14 15  1  0
 15 16  1  0
 16 17  1  0
 10 18  1  0
 18 19  1  0
 19 20  2  0
 19 21  1  0
 22 21  1  1
 22 23  1  0
 23 24  1  0
 25 24  1  1
 25 26  1  0
 26 27  1  0
 27 28  1  0
 29 28  1  1
  6 30  1  0
 30 31  2  0
 30 32  2  0
 30 33  1  0
 33 34  1  0
 34 35  1  0
 35 36  1  0
 36 37  1  0
 37 38  1  6
 37 39  1  0
 39 40  1  0
 36 41  1  0
 41 42  1  0
 17 12  1  0
 29 22  1  0
 42 33  1  0
 29 25  1  0
M  END
>  <shape_align_shape_tanimoto>  (3) 
0.61479277445246083

>  <shape_align_color_tanimoto>  (3) 
0.067687144995105877

>  <metric>  (3) 
combo

>  <metric_score>  (3) 
0.341

>  <template_pid>  (3) 
6OY0

>  <template_shape_score>  (3) 
0.615

>  <template_color_score>  (3) 
0.068

>  <template_combo_score>  (3) 
0.341

$$$$
