4C6Z_shape_pose
     RDKit          3D

 15 15  0  0  0  0  0  0  0  0999 V2000
   10.8389   -9.8190   29.3703 C   0  0  0  0  0  0  0  0  0  0  0  0
   11.9823   -9.5413   29.9705 C   0  0  0  0  0  0  0  0  0  0  0  0
   13.0047  -10.5813   30.2336 C   0  0  0  0  0  0  0  0  0  0  0  0
   12.7063  -11.9362   29.8020 C   0  0  0  0  0  0  0  0  0  0  0  0
   14.1384  -10.2471   30.8430 C   0  0  0  0  0  0  0  0  0  0  0  0
   15.2211  -11.1825   31.1572 C   0  0  1  0  0  0  0  0  0  0  0  0
   15.8189  -11.8630   29.9579 C   0  0  0  0  0  0  0  0  0  0  0  0
   16.5821  -10.1786   31.8538 S   0  0  0  0  0  0  0  0  0  0  0  0
   17.1280  -11.5421   32.9315 C   0  0  0  0  0  0  0  0  0  0  0  0
   18.2896  -11.7670   33.3419 O   0  0  0  0  0  0  0  0  0  0  0  0
   15.8814  -12.2702   33.1730 C   0  0  0  0  0  0  0  0  0  0  0  0
   15.7767  -13.1821   34.3762 C   0  0  0  0  0  0  0  0  0  0  0  0
   14.4767  -13.8995   34.4729 C   0  0  0  0  0  0  0  0  0  0  0  0
   14.9647  -12.0706   32.2859 C   0  0  0  0  0  0  0  0  0  0  0  0
   13.6887  -12.7185   32.4042 O   0  0  0  0  0  0  0  0  0  0  0  0
  1  2  2  0
  2  3  1  0
  3  4  1  0
  3  5  2  0
  5  6  1  0
  6  7  1  6
  6  8  1  0
  8  9  1  0
  9 10  2  0
  9 11  1  0
 11 12  1  0
 12 13  1  0
 11 14  2  0
 14 15  1  0
 14  6  1  0
M  END
>  <shape_align_shape_tanimoto>  (1) 
0.46988342478670925

>  <shape_align_color_tanimoto>  (1) 
0.027886402299939203

>  <metric>  (1) 
shape

>  <metric_score>  (1) 
0.470

>  <template_pid>  (1) 
4C6Z

>  <template_shape_score>  (1) 
0.470

>  <template_color_score>  (1) 
0.028

>  <template_combo_score>  (1) 
0.249

$$$$
4C6Z_color_pose
     RDKit          3D

 15 15  0  0  0  0  0  0  0  0999 V2000
   10.6562  -10.4708   28.6375 C   0  0  0  0  0  0  0  0  0  0  0  0
   11.0854  -11.3793   29.4970 C   0  0  0  0  0  0  0  0  0  0  0  0
   12.0102  -11.0355   30.6028 C   0  0  0  0  0  0  0  0  0  0  0  0
   12.4342   -9.6531   30.7172 C   0  0  0  0  0  0  0  0  0  0  0  0
   12.4131  -11.9816   31.4375 C   0  0  0  0  0  0  0  0  0  0  0  0
   13.3243  -11.7709   32.5680 C   0  0  1  0  0  0  0  0  0  0  0  0
   12.8221  -10.8081   33.5929 C   0  0  0  0  0  0  0  0  0  0  0  0
   13.4565  -13.3749   33.4510 S   0  0  0  0  0  0  0  0  0  0  0  0
   15.1632  -13.0057   33.9757 C   0  0  0  0  0  0  0  0  0  0  0  0
   15.7308  -13.3822   35.0260 O   0  0  0  0  0  0  0  0  0  0  0  0
   15.6528  -12.1846   32.8718 C   0  0  0  0  0  0  0  0  0  0  0  0
   17.1426  -12.0822   32.6181 C   0  0  0  0  0  0  0  0  0  0  0  0
   17.8397  -11.5254   33.8433 C   0  0  0  0  0  0  0  0  0  0  0  0
   14.7281  -11.5889   32.1931 C   0  0  0  0  0  0  0  0  0  0  0  0
   15.0638  -10.7533   31.0777 O   0  0  0  0  0  0  0  0  0  0  0  0
  1  2  2  0
  2  3  1  0
  3  4  1  0
  3  5  2  0
  5  6  1  0
  6  7  1  1
  6  8  1  0
  8  9  1  0
  9 10  2  0
  9 11  1  0
 11 12  1  0
 12 13  1  0
 11 14  2  0
 14 15  1  0
 14  6  1  0
M  END
>  <shape_align_shape_tanimoto>  (2) 
0.41688642481421756

>  <shape_align_color_tanimoto>  (2) 
0.075078408439242253

>  <metric>  (2) 
color

>  <metric_score>  (2) 
0.075

>  <template_pid>  (2) 
4C6Z

>  <template_shape_score>  (2) 
0.417

>  <template_color_score>  (2) 
0.075

>  <template_combo_score>  (2) 
0.246

$$$$
4C6Z_combo_pose
     RDKit          3D

 15 15  0  0  0  0  0  0  0  0999 V2000
   10.8798   -9.7872   29.3771 C   0  0  0  0  0  0  0  0  0  0  0  0
   12.0006   -9.5401   30.0188 C   0  0  0  0  0  0  0  0  0  0  0  0
   13.0336  -10.5834   30.2362 C   0  0  0  0  0  0  0  0  0  0  0  0
   12.7638  -11.9046   29.7084 C   0  0  0  0  0  0  0  0  0  0  0  0
   14.1445  -10.2685   30.8941 C   0  0  0  0  0  0  0  0  0  0  0  0
   15.2366  -11.2179   31.1694 C   0  0  1  0  0  0  0  0  0  0  0  0
   15.8345  -11.8644   29.9458 C   0  0  0  0  0  0  0  0  0  0  0  0
   16.5904  -10.1905   31.8645 S   0  0  0  0  0  0  0  0  0  0  0  0
   17.1341  -11.5371   32.9536 C   0  0  0  0  0  0  0  0  0  0  0  0
   18.2867  -11.7556   33.3905 O   0  0  0  0  0  0  0  0  0  0  0  0
   15.8879  -12.2905   33.1840 C   0  0  0  0  0  0  0  0  0  0  0  0
   15.8051  -13.1937   34.3957 C   0  0  0  0  0  0  0  0  0  0  0  0
   14.5190  -13.9312   34.5106 C   0  0  0  0  0  0  0  0  0  0  0  0
   14.9876  -12.1080   32.2960 C   0  0  0  0  0  0  0  0  0  0  0  0
   13.7154  -12.7758   32.3935 O   0  0  0  0  0  0  0  0  0  0  0  0
  1  2  2  0
  2  3  1  0
  3  4  1  0
  3  5  2  0
  5  6  1  0
  6  7  1  6
  6  8  1  0
  8  9  1  0
  9 10  2  0
  9 11  1  0
 11 12  1  0
 12 13  1  0
 11 14  2  0
 14 15  1  0
 14  6  1  0
M  END
>  <shape_align_shape_tanimoto>  (3) 
0.46938059699666501

>  <shape_align_color_tanimoto>  (3) 
0.028845788877528984

>  <metric>  (3) 
combo

>  <metric_score>  (3) 
0.249

>  <template_pid>  (3) 
4C6Z

>  <template_shape_score>  (3) 
0.469

>  <template_color_score>  (3) 
0.029

>  <template_combo_score>  (3) 
0.249

$$$$
