6I78_shape_pose
     RDKit          3D

 35 38  0  0  0  0  0  0  0  0999 V2000
  -12.2838   12.4533    5.4564 C   0  0  0  0  0  0  0  0  0  0  0  0
  -12.4760   11.1850    4.8047 N   0  0  0  0  0  0  0  0  0  0  0  0
  -11.4471   10.5563    4.0538 C   0  0  0  0  0  0  0  0  0  0  0  0
  -11.6491    9.3219    3.4248 C   0  0  0  0  0  0  0  0  0  0  0  0
  -12.8659    8.7107    3.5377 F   0  0  0  0  0  0  0  0  0  0  0  0
  -10.6482    8.7100    2.6945 C   0  0  0  0  0  0  0  0  0  0  0  0
  -10.8720    7.5136    2.0956 F   0  0  0  0  0  0  0  0  0  0  0  0
   -9.4096    9.3210    2.5731 C   0  0  0  0  0  0  0  0  0  0  0  0
   -8.3956    8.6204    1.7875 C   0  0  0  0  0  0  0  0  0  0  0  0
   -8.1252    8.7065    0.4354 C   0  0  0  0  0  0  0  0  0  0  0  0
   -7.1025    7.8637    0.2098 N   0  0  0  0  0  0  0  0  0  0  0  0
   -6.4634    7.6079   -1.0677 C   0  0  1  0  0  0  0  0  0  0  0  0
   -7.4430    6.9138   -2.0002 C   0  0  1  0  0  0  0  0  0  0  0  0
   -8.6863    7.5276   -1.8521 O   0  0  0  0  0  0  0  0  0  0  0  0
   -7.0456    6.9104   -3.4196 C   0  0  1  0  0  0  0  0  0  0  0  0
   -8.2914    6.8187   -4.2803 C   0  0  0  0  0  0  0  0  0  0  0  0
   -9.1707    5.8281   -3.8270 O   0  0  0  0  0  0  0  0  0  0  0  0
   -6.2432    7.8770   -3.9049 O   0  0  0  0  0  0  0  0  0  0  0  0
   -5.7447    8.8326   -3.1305 C   0  0  1  0  0  0  0  0  0  0  0  0
   -5.8872   10.4609   -3.9207 S   0  0  0  0  0  0  0  0  0  0  0  0
   -7.5600   10.9934   -4.1184 C   0  0  0  0  0  0  0  0  0  0  0  0
   -8.2521   11.7280   -3.1759 C   0  0  0  0  0  0  0  0  0  0  0  0
   -9.5767   12.1028   -3.4255 C   0  0  0  0  0  0  0  0  0  0  0  0
  -10.1865   11.7392   -4.6084 C   0  0  0  0  0  0  0  0  0  0  0  0
  -11.5987   12.1097   -4.9323 C   0  0  0  0  0  0  0  0  0  0  0  0
   -9.5132   11.0061   -5.5622 C   0  0  0  0  0  0  0  0  0  0  0  0
   -8.2078   10.6418   -5.3058 C   0  0  0  0  0  0  0  0  0  0  0  0
   -6.2474    8.9706   -1.7291 C   0  0  2  0  0  0  0  0  0  0  0  0
   -5.4064    9.7222   -0.9398 O   0  0  0  0  0  0  0  0  0  0  0  0
   -6.7354    7.2695    1.3498 N   0  0  0  0  0  0  0  0  0  0  0  0
   -7.5257    7.7266    2.3367 N   0  0  0  0  0  0  0  0  0  0  0  0
   -9.1799   10.5385    3.1820 C   0  0  0  0  0  0  0  0  0  0  0  0
   -7.9690   11.1308    3.0606 F   0  0  0  0  0  0  0  0  0  0  0  0
  -10.1994   11.1297    3.9074 C   0  0  0  0  0  0  0  0  0  0  0  0
   -9.9492   12.3176    4.4911 F   0  0  0  0  0  0  0  0  0  0  0  0
  1  2  1  0
  2  3  1  0
  3  4  2  0
  4  5  1  0
  4  6  1  0
  6  7  1  0
  6  8  2  0
  8  9  1  0
  9 10  2  0
 10 11  1  0
 12 11  1  1
 12 13  1  0
 13 14  1  6
 13 15  1  0
 15 16  1  6
 16 17  1  0
 15 18  1  0
 18 19  1  0
 19 20  1  6
 20 21  1  0
 21 22  2  0
 22 23  1  0
 23 24  2  0
 24 25  1  0
 24 26  1  0
 26 27  2  0
 19 28  1  0
 28 29  1  1
 11 30  1  0
 30 31  2  0
  8 32  1  0
 32 33  1  0
 32 34  2  0
 34 35  1  0
 34  3  1  0
 31  9  1  0
 28 12  1  0
 27 21  1  0
M  END
>  <shape_align_shape_tanimoto>  (1) 
0.61924008621062965

>  <shape_align_color_tanimoto>  (1) 
0.065927425492637484

>  <metric>  (1) 
shape

>  <metric_score>  (1) 
0.619

>  <template_pid>  (1) 
6I78

>  <template_shape_score>  (1) 
0.619

>  <template_color_score>  (1) 
0.066

>  <template_combo_score>  (1) 
0.343

$$$$
6I78_color_pose
     RDKit          3D

 35 38  0  0  0  0  0  0  0  0999 V2000
  -10.8558   11.8312    5.9226 C   0  0  0  0  0  0  0  0  0  0  0  0
  -10.5273   10.5816    5.2691 N   0  0  0  0  0  0  0  0  0  0  0  0
  -10.2707   10.4677    3.8755 C   0  0  0  0  0  0  0  0  0  0  0  0
  -11.3027   10.2069    2.9655 C   0  0  0  0  0  0  0  0  0  0  0  0
  -12.5657   10.0570    3.3765 F   0  0  0  0  0  0  0  0  0  0  0  0
  -10.9975   10.1041    1.6232 C   0  0  0  0  0  0  0  0  0  0  0  0
  -11.9661    9.8549    0.7200 F   0  0  0  0  0  0  0  0  0  0  0  0
   -9.6976   10.2558    1.1858 C   0  0  0  0  0  0  0  0  0  0  0  0
   -9.3073   10.1562   -0.2157 C   0  0  0  0  0  0  0  0  0  0  0  0
   -9.2372   11.1340   -1.1855 C   0  0  0  0  0  0  0  0  0  0  0  0
   -8.8263   10.5889   -2.3419 N   0  0  0  0  0  0  0  0  0  0  0  0
   -8.6022   11.2071   -3.6328 C   0  0  1  0  0  0  0  0  0  0  0  0
   -7.6243   12.3642   -3.5738 C   0  0  1  0  0  0  0  0  0  0  0  0
   -7.9230   13.1361   -2.4422 O   0  0  0  0  0  0  0  0  0  0  0  0
   -6.1926   11.9513   -3.5996 C   0  0  1  0  0  0  0  0  0  0  0  0
   -5.4666   12.3178   -2.3077 C   0  0  0  0  0  0  0  0  0  0  0  0
   -5.9608   11.6414   -1.2147 O   0  0  0  0  0  0  0  0  0  0  0  0
   -6.0076   10.5837   -3.7706 O   0  0  0  0  0  0  0  0  0  0  0  0
   -6.7173   10.0876   -4.8536 C   0  0  1  0  0  0  0  0  0  0  0  0
   -6.2641    8.3754   -5.1720 S   0  0  0  0  0  0  0  0  0  0  0  0
   -6.7372    7.2553   -3.8904 C   0  0  0  0  0  0  0  0  0  0  0  0
   -7.9922    6.6529   -3.9733 C   0  0  0  0  0  0  0  0  0  0  0  0
   -8.4396    5.7668   -3.0139 C   0  0  0  0  0  0  0  0  0  0  0  0
   -7.6217    5.4556   -1.9232 C   0  0  0  0  0  0  0  0  0  0  0  0
   -8.0680    4.5045   -0.8658 C   0  0  0  0  0  0  0  0  0  0  0  0
   -6.3633    6.0453   -1.8188 C   0  0  0  0  0  0  0  0  0  0  0  0
   -5.9414    6.9371   -2.8063 C   0  0  0  0  0  0  0  0  0  0  0  0
   -8.2066   10.1925   -4.6751 C   0  0  2  0  0  0  0  0  0  0  0  0
   -8.7947   10.5344   -5.8936 O   0  0  0  0  0  0  0  0  0  0  0  0
   -8.6397    9.2932   -2.1119 N   0  0  0  0  0  0  0  0  0  0  0  0
   -8.9221    9.0041   -0.8381 N   0  0  0  0  0  0  0  0  0  0  0  0
   -8.6892   10.5130    2.0954 C   0  0  0  0  0  0  0  0  0  0  0  0
   -7.3938   10.6699    1.7082 F   0  0  0  0  0  0  0  0  0  0  0  0
   -8.9694   10.6201    3.4421 C   0  0  0  0  0  0  0  0  0  0  0  0
   -7.9424   10.8770    4.3192 F   0  0  0  0  0  0  0  0  0  0  0  0
  1  2  1  0
  2  3  1  0
  3  4  2  0
  4  5  1  0
  4  6  1  0
  6  7  1  0
  6  8  2  0
  8  9  1  0
  9 10  2  0
 10 11  1  0
 12 11  1  1
 12 13  1  0
 13 14  1  1
 13 15  1  0
 15 16  1  1
 16 17  1  0
 15 18  1  0
 18 19  1  0
 19 20  1  1
 20 21  1  0
 21 22  2  0
 22 23  1  0
 23 24  2  0
 24 25  1  0
 24 26  1  0
 26 27  2  0
 19 28  1  0
 28 29  1  6
 11 30  1  0
 30 31  2  0
  8 32  1  0
 32 33  1  0
 32 34  2  0
 34 35  1  0
 34  3  1  0
 31  9  1  0
 28 12  1  0
 27 21  1  0
M  END
>  <shape_align_shape_tanimoto>  (2) 
0.50328684354997766

>  <shape_align_color_tanimoto>  (2) 
0.10484444731268036

>  <metric>  (2) 
color

>  <metric_score>  (2) 
0.105

>  <template_pid>  (2) 
6I78

>  <template_shape_score>  (2) 
0.503

>  <template_color_score>  (2) 
0.105

>  <template_combo_score>  (2) 
0.304

$$$$
6I78_combo_pose
     RDKit          3D

 35 38  0  0  0  0  0  0  0  0999 V2000
  -12.2838   12.4533    5.4564 C   0  0  0  0  0  0  0  0  0  0  0  0
  -12.4760   11.1850    4.8047 N   0  0  0  0  0  0  0  0  0  0  0  0
  -11.4471   10.5563    4.0538 C   0  0  0  0  0  0  0  0  0  0  0  0
  -11.6491    9.3219    3.4248 C   0  0  0  0  0  0  0  0  0  0  0  0
  -12.8659    8.7107    3.5377 F   0  0  0  0  0  0  0  0  0  0  0  0
  -10.6482    8.7100    2.6945 C   0  0  0  0  0  0  0  0  0  0  0  0
  -10.8720    7.5136    2.0956 F   0  0  0  0  0  0  0  0  0  0  0  0
   -9.4096    9.3210    2.5731 C   0  0  0  0  0  0  0  0  0  0  0  0
   -8.3956    8.6204    1.7875 C   0  0  0  0  0  0  0  0  0  0  0  0
   -8.1252    8.7065    0.4354 C   0  0  0  0  0  0  0  0  0  0  0  0
   -7.1025    7.8637    0.2098 N   0  0  0  0  0  0  0  0  0  0  0  0
   -6.4634    7.6079   -1.0677 C   0  0  1  0  0  0  0  0  0  0  0  0
   -7.4430    6.9138   -2.0002 C   0  0  1  0  0  0  0  0  0  0  0  0
   -8.6863    7.5276   -1.8521 O   0  0  0  0  0  0  0  0  0  0  0  0
   -7.0456    6.9104   -3.4196 C   0  0  1  0  0  0  0  0  0  0  0  0
   -8.2914    6.8187   -4.2803 C   0  0  0  0  0  0  0  0  0  0  0  0
   -9.1707    5.8281   -3.8270 O   0  0  0  0  0  0  0  0  0  0  0  0
   -6.2432    7.8770   -3.9049 O   0  0  0  0  0  0  0  0  0  0  0  0
   -5.7447    8.8326   -3.1305 C   0  0  1  0  0  0  0  0  0  0  0  0
   -5.8872   10.4609   -3.9207 S   0  0  0  0  0  0  0  0  0  0  0  0
   -7.5600   10.9934   -4.1184 C   0  0  0  0  0  0  0  0  0  0  0  0
   -8.2521   11.7280   -3.1759 C   0  0  0  0  0  0  0  0  0  0  0  0
   -9.5767   12.1028   -3.4255 C   0  0  0  0  0  0  0  0  0  0  0  0
  -10.1865   11.7392   -4.6084 C   0  0  0  0  0  0  0  0  0  0  0  0
  -11.5987   12.1097   -4.9323 C   0  0  0  0  0  0  0  0  0  0  0  0
   -9.5132   11.0061   -5.5622 C   0  0  0  0  0  0  0  0  0  0  0  0
   -8.2078   10.6418   -5.3058 C   0  0  0  0  0  0  0  0  0  0  0  0
   -6.2474    8.9706   -1.7291 C   0  0  2  0  0  0  0  0  0  0  0  0
   -5.4064    9.7222   -0.9398 O   0  0  0  0  0  0  0  0  0  0  0  0
   -6.7354    7.2695    1.3498 N   0  0  0  0  0  0  0  0  0  0  0  0
   -7.5257    7.7266    2.3367 N   0  0  0  0  0  0  0  0  0  0  0  0
   -9.1799   10.5385    3.1820 C   0  0  0  0  0  0  0  0  0  0  0  0
   -7.9690   11.1308    3.0606 F   0  0  0  0  0  0  0  0  0  0  0  0
  -10.1994   11.1297    3.9074 C   0  0  0  0  0  0  0  0  0  0  0  0
   -9.9492   12.3176    4.4911 F   0  0  0  0  0  0  0  0  0  0  0  0
  1  2  1  0
  2  3  1  0
  3  4  2  0
  4  5  1  0
  4  6  1  0
  6  7  1  0
  6  8  2  0
  8  9  1  0
  9 10  2  0
 10 11  1  0
 12 11  1  1
 12 13  1  0
 13 14  1  6
 13 15  1  0
 15 16  1  6
 16 17  1  0
 15 18  1  0
 18 19  1  0
 19 20  1  6
 20 21  1  0
 21 22  2  0
 22 23  1  0
 23 24  2  0
 24 25  1  0
 24 26  1  0
 26 27  2  0
 19 28  1  0
 28 29  1  1
 11 30  1  0
 30 31  2  0
  8 32  1  0
 32 33  1  0
 32 34  2  0
 34 35  1  0
 34  3  1  0
 31  9  1  0
 28 12  1  0
 27 21  1  0
M  END
>  <shape_align_shape_tanimoto>  (3) 
0.61924008621062965

>  <shape_align_color_tanimoto>  (3) 
0.065927425492637484

>  <metric>  (3) 
combo

>  <metric_score>  (3) 
0.343

>  <template_pid>  (3) 
6I78

>  <template_shape_score>  (3) 
0.619

>  <template_color_score>  (3) 
0.066

>  <template_combo_score>  (3) 
0.343

$$$$
