5ZK7_shape_pose
     RDKit          3D

 43 43  0  0  0  0  0  0  0  0999 V2000
   31.0018   31.1864   62.2217 C   0  0  0  0  0  0  0  0  0  0  0  0
   29.8640   31.9455   61.5980 C   0  0  0  0  0  0  0  0  0  0  0  0
   30.0885   33.1222   61.2169 O   0  0  0  0  0  0  0  0  0  0  0  0
   28.6102   31.2964   61.4758 N   0  0  0  0  0  0  0  0  0  0  0  0
   27.4285   31.8882   60.9022 C   0  0  1  0  0  0  0  0  0  0  0  0
   27.0590   31.1619   59.6527 C   0  0  0  0  0  0  0  0  0  0  0  0
   26.7643   29.6857   59.8760 C   0  0  0  0  0  0  0  0  0  0  0  0
   26.4143   29.1066   58.5320 C   0  0  0  0  0  0  0  0  0  0  0  0
   27.4768   29.2307   57.5687 N   0  0  0  0  0  0  0  0  0  0  0  0
   28.7093   28.5318   57.6327 C   0  0  0  0  0  0  0  0  0  0  0  0
   29.6392   28.8130   56.5655 N   0  0  0  0  0  0  0  0  0  0  0  0
   29.0249   27.7086   58.5386 N   0  0  0  0  0  0  0  0  0  0  0  0
   26.3133   32.0194   61.8745 C   0  0  0  0  0  0  0  0  0  0  0  0
   26.4796   31.6876   63.1001 O   0  0  0  0  0  0  0  0  0  0  0  0
   25.0823   32.5155   61.3965 N   0  0  0  0  0  0  0  0  0  0  0  0
   23.9018   32.6969   62.2268 C   0  0  1  0  0  0  0  0  0  0  0  0
   23.3710   34.0701   62.2914 C   0  0  0  0  0  0  0  0  0  0  0  0
   22.9498   34.6965   61.0421 C   0  0  0  0  0  0  0  0  0  0  0  0
   21.6593   34.6143   60.5603 C   0  0  0  0  0  0  0  0  0  0  0  0
   21.3281   35.2298   59.3971 C   0  0  0  0  0  0  0  0  0  0  0  0
   22.2107   35.9657   58.6181 C   0  0  0  0  0  0  0  0  0  0  0  0
   21.8314   36.5776   57.4395 O   0  0  0  0  0  0  0  0  0  0  0  0
   23.5109   36.0492   59.1025 C   0  0  0  0  0  0  0  0  0  0  0  0
   23.8592   35.4174   60.2991 C   0  0  0  0  0  0  0  0  0  0  0  0
   22.9076   31.6346   61.9773 C   0  0  0  0  0  0  0  0  0  0  0  0
   23.2771   30.6823   61.2227 O   0  0  0  0  0  0  0  0  0  0  0  0
   21.6049   31.5802   62.4941 N   0  0  0  0  0  0  0  0  0  0  0  0
   20.7713   30.4651   62.1864 C   0  0  1  0  0  0  0  0  0  0  0  0
   20.1254   29.8984   63.4332 C   0  0  0  0  0  0  0  0  0  0  0  0
   21.1269   29.4939   64.3388 O   0  0  0  0  0  0  0  0  0  0  0  0
   19.7305   30.7108   61.1498 C   0  0  0  0  0  0  0  0  0  0  0  0
   19.5643   31.8043   60.5638 O   0  0  0  0  0  0  0  0  0  0  0  0
   18.8971   29.5996   60.8388 N   0  0  0  0  0  0  0  0  0  0  0  0
   17.8342   29.6292   59.8538 C   0  0  2  0  0  0  0  0  0  0  0  0
   16.5556   29.4138   60.5877 C   0  0  0  0  0  0  0  0  0  0  0  0
   16.5032   29.2324   61.7983 O   0  0  0  0  0  0  0  0  0  0  0  0
   17.9746   28.4670   58.8932 C   0  0  0  0  0  0  0  0  0  0  0  0
   16.9019   28.4168   57.8345 C   0  0  0  0  0  0  0  0  0  0  0  0
   17.2283   27.1883   56.9922 C   0  0  0  0  0  0  0  0  0  0  0  0
   16.3057   26.9669   55.9221 N   0  0  0  0  0  0  0  0  0  0  0  0
   16.4774   25.8584   55.0599 C   0  0  0  0  0  0  0  0  0  0  0  0
   15.6055   25.5698   53.9762 N   0  0  0  0  0  0  0  0  0  0  0  0
   17.4749   25.0286   55.2305 N   0  0  0  0  0  0  0  0  0  0  0  0
  1  2  1  0
  2  3  2  0
  2  4  1  0
  4  5  1  0
  5  6  1  6
  6  7  1  0
  7  8  1  0
  8  9  1  0
  9 10  1  0
 10 11  1  0
 10 12  2  0
  5 13  1  0
 13 14  2  0
 13 15  1  0
 15 16  1  0
 16 17  1  6
 17 18  1  0
 18 19  2  0
 19 20  1  0
 20 21  2  0
 21 22  1  0
 21 23  1  0
 23 24  2  0
 16 25  1  0
 25 26  2  0
 25 27  1  0
 27 28  1  0
 28 29  1  1
 29 30  1  0
 28 31  1  0
 31 32  2  0
 31 33  1  0
 33 34  1  0
 34 35  1  0
 35 36  2  0
 34 37  1  6
 37 38  1  0
 38 39  1  0
 39 40  1  0
 40 41  1  0
 41 42  1  0
 41 43  2  0
 24 18  1  0
M  CHG  2  12   1  43   1
M  END
>  <shape_align_shape_tanimoto>  (1) 
0.55265595598327044

>  <shape_align_color_tanimoto>  (1) 
0.0053560644499453334

>  <metric>  (1) 
shape

>  <metric_score>  (1) 
0.553

>  <template_pid>  (1) 
5ZK7

>  <template_shape_score>  (1) 
0.553

>  <template_color_score>  (1) 
0.005

>  <template_combo_score>  (1) 
0.279

$$$$
5ZK7_color_pose
     RDKit          3D

 43 43  0  0  0  0  0  0  0  0999 V2000
   23.1954   27.3033   62.5735 C   0  0  0  0  0  0  0  0  0  0  0  0
   23.4665   28.0456   63.8321 C   0  0  0  0  0  0  0  0  0  0  0  0
   22.5098   28.1749   64.6392 O   0  0  0  0  0  0  0  0  0  0  0  0
   24.7353   28.5992   64.1554 N   0  0  0  0  0  0  0  0  0  0  0  0
   24.9088   29.3309   65.4674 C   0  0  1  0  0  0  0  0  0  0  0  0
   26.0488   28.6463   66.0830 C   0  0  0  0  0  0  0  0  0  0  0  0
   26.6566   28.8707   67.3899 C   0  0  0  0  0  0  0  0  0  0  0  0
   27.3406   30.0754   67.8321 C   0  0  0  0  0  0  0  0  0  0  0  0
   26.7557   31.3406   67.9717 N   0  0  0  0  0  0  0  0  0  0  0  0
   25.7342   31.7266   68.8777 C   0  0  0  0  0  0  0  0  0  0  0  0
   25.2680   33.1014   68.8506 N   0  0  0  0  0  0  0  0  0  0  0  0
   25.2086   30.9101   69.7208 N   0  0  0  0  0  0  0  0  0  0  0  0
   25.0865   30.7162   65.0455 C   0  0  0  0  0  0  0  0  0  0  0  0
   24.9576   31.7289   65.7826 O   0  0  0  0  0  0  0  0  0  0  0  0
   25.4444   31.0701   63.6692 N   0  0  0  0  0  0  0  0  0  0  0  0
   25.5816   32.4688   63.3204 C   0  0  1  0  0  0  0  0  0  0  0  0
   26.9415   32.7716   62.7523 C   0  0  0  0  0  0  0  0  0  0  0  0
   27.2282   31.9972   61.5187 C   0  0  0  0  0  0  0  0  0  0  0  0
   27.8049   30.7330   61.5761 C   0  0  0  0  0  0  0  0  0  0  0  0
   28.0765   29.9896   60.4329 C   0  0  0  0  0  0  0  0  0  0  0  0
   27.7553   30.5524   59.2023 C   0  0  0  0  0  0  0  0  0  0  0  0
   28.0347   29.7983   58.0506 O   0  0  0  0  0  0  0  0  0  0  0  0
   27.1924   31.7927   59.1746 C   0  0  0  0  0  0  0  0  0  0  0  0
   26.9105   32.5492   60.2970 C   0  0  0  0  0  0  0  0  0  0  0  0
   24.4813   32.8364   62.3578 C   0  0  0  0  0  0  0  0  0  0  0  0
   24.3277   34.0523   62.0650 O   0  0  0  0  0  0  0  0  0  0  0  0
   23.6809   31.7914   61.8348 N   0  0  0  0  0  0  0  0  0  0  0  0
   22.5777   31.9538   60.9182 C   0  0  1  0  0  0  0  0  0  0  0  0
   22.9652   31.6576   59.4876 C   0  0  0  0  0  0  0  0  0  0  0  0
   23.4197   30.3645   59.3068 O   0  0  0  0  0  0  0  0  0  0  0  0
   21.4287   31.0744   61.3694 C   0  0  0  0  0  0  0  0  0  0  0  0
   21.6932   30.4677   62.4550 O   0  0  0  0  0  0  0  0  0  0  0  0
   20.2429   30.9633   60.6540 N   0  0  0  0  0  0  0  0  0  0  0  0
   19.0630   30.2225   60.9025 C   0  0  2  0  0  0  0  0  0  0  0  0
   18.8001   29.8827   62.3208 C   0  0  0  0  0  0  0  0  0  0  0  0
   19.4344   30.2192   63.2867 O   0  0  0  0  0  0  0  0  0  0  0  0
   18.8344   29.0751   59.9526 C   0  0  0  0  0  0  0  0  0  0  0  0
   17.5864   28.2993   60.2080 C   0  0  0  0  0  0  0  0  0  0  0  0
   17.3625   27.1630   59.2474 C   0  0  0  0  0  0  0  0  0  0  0  0
   17.2460   27.5618   57.8843 N   0  0  0  0  0  0  0  0  0  0  0  0
   17.0256   26.6299   56.8476 C   0  0  0  0  0  0  0  0  0  0  0  0
   16.9129   27.0536   55.4717 N   0  0  0  0  0  0  0  0  0  0  0  0
   16.9180   25.3423   57.0778 N   0  0  0  0  0  0  0  0  0  0  0  0
  1  2  1  0
  2  3  2  0
  2  4  1  0
  4  5  1  0
  5  6  1  6
  6  7  1  0
  7  8  1  0
  8  9  1  0
  9 10  1  0
 10 11  1  0
 10 12  2  0
  5 13  1  0
 13 14  2  0
 13 15  1  0
 15 16  1  0
 16 17  1  6
 17 18  1  0
 18 19  2  0
 19 20  1  0
 20 21  2  0
 21 22  1  0
 21 23  1  0
 23 24  2  0
 16 25  1  0
 25 26  2  0
 25 27  1  0
 27 28  1  0
 28 29  1  6
 29 30  1  0
 28 31  1  0
 31 32  2  0
 31 33  1  0
 33 34  1  0
 34 35  1  0
 35 36  2  0
 34 37  1  6
 37 38  1  0
 38 39  1  0
 39 40  1  0
 40 41  1  0
 41 42  1  0
 41 43  2  0
 24 18  1  0
M  CHG  2  12   1  43   1
M  END
>  <shape_align_shape_tanimoto>  (2) 
0.46087371604726196

>  <shape_align_color_tanimoto>  (2) 
0.051131727802659122

>  <metric>  (2) 
color

>  <metric_score>  (2) 
0.051

>  <template_pid>  (2) 
5ZK7

>  <template_shape_score>  (2) 
0.461

>  <template_color_score>  (2) 
0.051

>  <template_combo_score>  (2) 
0.256

$$$$
5ZK7_combo_pose
     RDKit          3D

 43 43  0  0  0  0  0  0  0  0999 V2000
   18.6638   24.9646   58.4381 C   0  0  0  0  0  0  0  0  0  0  0  0
   18.9537   26.4390   58.3927 C   0  0  0  0  0  0  0  0  0  0  0  0
   19.6526   26.9248   57.4371 O   0  0  0  0  0  0  0  0  0  0  0  0
   18.4335   27.2623   59.4318 N   0  0  0  0  0  0  0  0  0  0  0  0
   18.6455   28.6788   59.4944 C   0  0  1  0  0  0  0  0  0  0  0  0
   17.4237   29.4930   59.6871 C   0  0  0  0  0  0  0  0  0  0  0  0
   16.4194   29.2987   58.5755 C   0  0  0  0  0  0  0  0  0  0  0  0
   17.0413   29.7050   57.2666 C   0  0  0  0  0  0  0  0  0  0  0  0
   16.1613   29.5798   56.1278 N   0  0  0  0  0  0  0  0  0  0  0  0
   15.6720   28.3670   55.6089 C   0  0  0  0  0  0  0  0  0  0  0  0
   14.7954   28.4739   54.4636 N   0  0  0  0  0  0  0  0  0  0  0  0
   15.9558   27.2248   56.0852 N   0  0  0  0  0  0  0  0  0  0  0  0
   19.6024   28.9139   60.6799 C   0  0  0  0  0  0  0  0  0  0  0  0
   19.8969   27.8831   61.2794 O   0  0  0  0  0  0  0  0  0  0  0  0
   20.0057   30.2191   60.9199 N   0  0  0  0  0  0  0  0  0  0  0  0
   20.8338   30.8474   61.8780 C   0  0  1  0  0  0  0  0  0  0  0  0
   21.4139   30.1944   63.0552 C   0  0  0  0  0  0  0  0  0  0  0  0
   20.3986   29.7287   64.0061 C   0  0  0  0  0  0  0  0  0  0  0  0
   19.9933   28.4653   64.2831 C   0  0  0  0  0  0  0  0  0  0  0  0
   18.9955   28.1331   65.1753 C   0  0  0  0  0  0  0  0  0  0  0  0
   18.3393   29.1361   65.8565 C   0  0  0  0  0  0  0  0  0  0  0  0
   17.3280   28.8094   66.7625 O   0  0  0  0  0  0  0  0  0  0  0  0
   18.7161   30.4376   65.6105 C   0  0  0  0  0  0  0  0  0  0  0  0
   19.7226   30.7530   64.7079 C   0  0  0  0  0  0  0  0  0  0  0  0
   21.7620   31.7332   61.1335 C   0  0  0  0  0  0  0  0  0  0  0  0
   21.5699   31.7777   59.8650 O   0  0  0  0  0  0  0  0  0  0  0  0
   22.7999   32.5018   61.6833 N   0  0  0  0  0  0  0  0  0  0  0  0
   23.5896   33.3040   60.7789 C   0  0  1  0  0  0  0  0  0  0  0  0
   23.4663   34.7473   61.2034 C   0  0  0  0  0  0  0  0  0  0  0  0
   22.1340   35.1574   61.1570 O   0  0  0  0  0  0  0  0  0  0  0  0
   25.0224   32.9191   60.7080 C   0  0  0  0  0  0  0  0  0  0  0  0
   25.7149   33.5972   59.8754 O   0  0  0  0  0  0  0  0  0  0  0  0
   25.5368   31.8849   61.5082 N   0  0  0  0  0  0  0  0  0  0  0  0
   26.8720   31.3760   61.5457 C   0  0  2  0  0  0  0  0  0  0  0  0
   27.6919   32.0152   62.6157 C   0  0  0  0  0  0  0  0  0  0  0  0
   28.8515   31.6345   62.7048 O   0  0  0  0  0  0  0  0  0  0  0  0
   27.6156   31.4991   60.2354 C   0  0  0  0  0  0  0  0  0  0  0  0
   27.0377   30.8013   59.0577 C   0  0  0  0  0  0  0  0  0  0  0  0
   26.9803   29.3249   59.1771 C   0  0  0  0  0  0  0  0  0  0  0  0
   26.2254   28.7068   60.2054 N   0  0  0  0  0  0  0  0  0  0  0  0
   24.8225   28.7499   60.3826 C   0  0  0  0  0  0  0  0  0  0  0  0
   24.2657   28.0530   61.5081 N   0  0  0  0  0  0  0  0  0  0  0  0
   24.0444   29.3848   59.5835 N   0  0  0  0  0  0  0  0  0  0  0  0
  1  2  1  0
  2  3  2  0
  2  4  1  0
  4  5  1  0
  5  6  1  1
  6  7  1  0
  7  8  1  0
  8  9  1  0
  9 10  1  0
 10 11  1  0
 10 12  2  0
  5 13  1  0
 13 14  2  0
 13 15  1  0
 15 16  1  0
 16 17  1  6
 17 18  1  0
 18 19  2  0
 19 20  1  0
 20 21  2  0
 21 22  1  0
 21 23  1  0
 23 24  2  0
 16 25  1  0
 25 26  2  0
 25 27  1  0
 27 28  1  0
 28 29  1  1
 29 30  1  0
 28 31  1  0
 31 32  2  0
 31 33  1  0
 33 34  1  0
 34 35  1  0
 35 36  2  0
 34 37  1  6
 37 38  1  0
 38 39  1  0
 39 40  1  0
 40 41  1  0
 41 42  1  0
 41 43  2  0
 24 18  1  0
M  CHG  2  12   1  43   1
M  END
>  <shape_align_shape_tanimoto>  (3) 
0.54885235313399316

>  <shape_align_color_tanimoto>  (3) 
0.011067648865477035

>  <metric>  (3) 
combo

>  <metric_score>  (3) 
0.280

>  <template_pid>  (3) 
5ZK7

>  <template_shape_score>  (3) 
0.549

>  <template_color_score>  (3) 
0.011

>  <template_combo_score>  (3) 
0.280

$$$$
