6HMT_shape_pose
     RDKit          3D

 42 43  0  0  0  0  0  0  0  0999 V2000
  -12.5837   -7.5211   62.6356 C   0  0  0  0  0  0  0  0  0  0  0  0
  -12.8345   -6.4614   61.5916 C   0  0  0  0  0  0  0  0  0  0  0  0
  -12.8519   -7.0695   60.2231 C   0  0  0  0  0  0  0  0  0  0  0  0
  -14.1469   -5.7380   61.8413 C   0  0  2  0  0  0  0  0  0  0  0  0
  -15.2668   -6.6404   61.8215 N   0  0  0  0  0  0  0  0  0  0  0  0
  -16.0226   -6.7708   63.0279 C   0  0  0  0  0  0  0  0  0  0  0  0
  -15.6457   -6.0813   64.0126 O   0  0  0  0  0  0  0  0  0  0  0  0
  -17.1976   -7.6828   63.1075 C   0  0  1  0  0  0  0  0  0  0  0  0
  -17.7093   -7.6035   64.4841 N   0  0  0  0  0  0  0  0  0  0  0  0
  -17.7254   -8.7273   65.3503 C   0  0  0  0  0  0  0  0  0  0  0  0
  -17.2795   -9.8500   64.9428 O   0  0  0  0  0  0  0  0  0  0  0  0
  -18.2727   -8.5834   66.7490 C   0  0  2  0  0  0  0  0  0  0  0  0
  -17.5586   -7.5353   67.5355 C   0  0  0  0  0  0  0  0  0  0  0  0
  -18.1390   -9.8792   67.3886 N   0  0  0  0  0  0  0  0  0  0  0  0
  -19.2484  -10.7249   67.6710 C   0  0  0  0  0  0  0  0  0  0  0  0
  -20.4279  -10.4069   67.3809 O   0  0  0  0  0  0  0  0  0  0  0  0
  -18.9483  -12.0399   68.3420 C   0  0  2  0  0  0  0  0  0  0  0  0
  -19.7618  -12.1328   69.5967 C   0  0  0  0  0  0  0  0  0  0  0  0
  -18.7511  -12.1432   70.7062 C   0  0  0  0  0  0  0  0  0  0  0  0
  -17.5073  -11.6067   70.0698 C   0  0  0  0  0  0  0  0  0  0  0  0
  -17.5523  -12.1490   68.7017 N   0  0  0  0  0  0  0  0  0  0  0  0
  -16.4910  -12.6650   67.9189 C   0  0  0  0  0  0  0  0  0  0  0  0
  -16.7754  -13.0856   66.7490 O   0  0  0  0  0  0  0  0  0  0  0  0
  -15.0845  -12.7519   68.3561 C   0  0  1  0  0  0  0  0  0  0  0  0
  -14.3688  -13.4834   67.3226 N   0  0  0  0  0  0  0  0  0  0  0  0
  -14.5440  -11.3514   68.5137 C   0  0  0  0  0  0  0  0  0  0  0  0
  -13.1277  -11.3336   68.9562 C   0  0  0  0  0  0  0  0  0  0  0  0
  -12.8704  -11.3388   70.3191 C   0  0  0  0  0  0  0  0  0  0  0  0
  -11.5917  -11.3214   70.8355 C   0  0  0  0  0  0  0  0  0  0  0  0
  -10.5538  -11.2971   69.9283 C   0  0  0  0  0  0  0  0  0  0  0  0
  -10.7549  -11.2905   68.5610 C   0  0  0  0  0  0  0  0  0  0  0  0
  -12.0612  -11.3094   68.0849 C   0  0  0  0  0  0  0  0  0  0  0  0
  -18.3428   -7.2535   62.2227 C   0  0  1  0  0  0  0  0  0  0  0  0
  -19.5351   -8.1142   62.6756 C   0  0  0  0  0  0  0  0  0  0  0  0
  -18.6549   -5.9442   62.6313 O   0  0  0  0  0  0  0  0  0  0  0  0
  -18.7577   -4.8507   61.3775 P   0  0  0  0  0  0  0  0  0  0  0  0
  -17.7774   -3.7192   61.6937 O   0  0  0  0  0  0  0  0  0  0  0  0
  -18.3655   -5.4864   59.8846 O   0  0  0  0  0  0  0  0  0  0  0  0
  -20.3082   -4.1329   61.2926 O   0  0  0  0  0  0  0  0  0  0  0  0
  -14.3808   -4.7275   60.7741 C   0  0  0  0  0  0  0  0  0  0  0  0
  -15.3870   -4.7415   60.0230 O   0  0  0  0  0  0  0  0  0  0  0  0
  -13.4100   -3.7238   60.6288 O   0  0  0  0  0  0  0  0  0  0  0  0
  1  2  1  0
  2  3  1  0
  2  4  1  0
  4  5  1  6
  5  6  1  0
  6  7  2  0
  6  8  1  0
  8  9  1  1
  9 10  1  0
 10 11  2  0
 10 12  1  0
 12 13  1  1
 12 14  1  0
 14 15  1  0
 15 16  2  0
 17 15  1  1
 17 18  1  0
 18 19  1  0
 19 20  1  0
 20 21  1  0
 21 22  1  0
 22 23  2  0
 22 24  1  0
 24 25  1  6
 24 26  1  0
 26 27  1  0
 27 28  2  0
 28 29  1  0
 29 30  2  0
 30 31  1  0
 31 32  2  0
  8 33  1  0
 33 34  1  1
 33 35  1  0
 35 36  1  0
 36 37  2  0
 36 38  1  0
 36 39  1  0
  4 40  1  0
 40 41  2  0
 40 42  1  0
 21 17  1  0
 32 27  1  0
M  CHG  1  25   1
M  END
>  <shape_align_shape_tanimoto>  (1) 
0.3913780015639382

>  <shape_align_color_tanimoto>  (1) 
0.043818316975837296

>  <metric>  (1) 
shape

>  <metric_score>  (1) 
0.391

>  <template_pid>  (1) 
6HMT

>  <template_shape_score>  (1) 
0.391

>  <template_color_score>  (1) 
0.044

>  <template_combo_score>  (1) 
0.218

$$$$
6HMT_color_pose
     RDKit          3D

 42 43  0  0  0  0  0  0  0  0999 V2000
  -12.3824  -13.4769   65.9890 C   0  0  0  0  0  0  0  0  0  0  0  0
  -11.9282  -12.1463   66.5829 C   0  0  0  0  0  0  0  0  0  0  0  0
  -10.4401  -11.9934   66.3750 C   0  0  0  0  0  0  0  0  0  0  0  0
  -12.3295  -12.1016   68.0227 C   0  0  2  0  0  0  0  0  0  0  0  0
  -13.7832  -12.2055   68.1379 N   0  0  0  0  0  0  0  0  0  0  0  0
  -14.4118  -13.2424   68.8729 C   0  0  0  0  0  0  0  0  0  0  0  0
  -13.6342  -14.0900   69.4362 O   0  0  0  0  0  0  0  0  0  0  0  0
  -15.8384  -13.4267   69.0403 C   0  0  1  0  0  0  0  0  0  0  0  0
  -16.6467  -12.4245   68.3691 N   0  0  0  0  0  0  0  0  0  0  0  0
  -17.6356  -11.6456   69.0468 C   0  0  0  0  0  0  0  0  0  0  0  0
  -17.7616  -11.8846   70.2916 O   0  0  0  0  0  0  0  0  0  0  0  0
  -18.4745  -10.6413   68.4373 C   0  0  2  0  0  0  0  0  0  0  0  0
  -19.9100  -11.2766   68.4283 C   0  0  0  0  0  0  0  0  0  0  0  0
  -18.1912  -10.2658   67.0917 N   0  0  0  0  0  0  0  0  0  0  0  0
  -18.9161   -9.2753   66.3659 C   0  0  0  0  0  0  0  0  0  0  0  0
  -19.8860   -8.7025   66.9349 O   0  0  0  0  0  0  0  0  0  0  0  0
  -18.5380   -8.9182   64.9555 C   0  0  2  0  0  0  0  0  0  0  0  0
  -19.5466   -9.5538   63.9928 C   0  0  0  0  0  0  0  0  0  0  0  0
  -18.9574  -10.9118   63.6801 C   0  0  0  0  0  0  0  0  0  0  0  0
  -17.4962  -10.8171   63.9617 C   0  0  0  0  0  0  0  0  0  0  0  0
  -17.3068   -9.4837   64.5391 N   0  0  0  0  0  0  0  0  0  0  0  0
  -16.0182   -8.9110   64.6629 C   0  0  0  0  0  0  0  0  0  0  0  0
  -15.0480   -9.6318   64.3175 O   0  0  0  0  0  0  0  0  0  0  0  0
  -15.7096   -7.5586   65.1584 C   0  0  1  0  0  0  0  0  0  0  0  0
  -14.3298   -7.5463   65.7228 N   0  0  0  0  0  0  0  0  0  0  0  0
  -15.6322   -6.5308   64.0475 C   0  0  0  0  0  0  0  0  0  0  0  0
  -16.8370   -6.3322   63.2644 C   0  0  0  0  0  0  0  0  0  0  0  0
  -17.1297   -7.0667   62.1081 C   0  0  0  0  0  0  0  0  0  0  0  0
  -18.2926   -6.8093   61.4273 C   0  0  0  0  0  0  0  0  0  0  0  0
  -19.1820   -5.8477   61.8460 C   0  0  0  0  0  0  0  0  0  0  0  0
  -18.9176   -5.1125   62.9780 C   0  0  0  0  0  0  0  0  0  0  0  0
  -17.7469   -5.3469   63.6940 C   0  0  0  0  0  0  0  0  0  0  0  0
  -16.3539  -14.7725   68.5637 C   0  0  1  0  0  0  0  0  0  0  0  0
  -16.2098  -14.8079   67.0473 C   0  0  0  0  0  0  0  0  0  0  0  0
  -15.6920  -15.8518   69.0818 O   0  0  0  0  0  0  0  0  0  0  0  0
  -16.6662  -16.9431   69.9099 P   0  0  0  0  0  0  0  0  0  0  0  0
  -17.0274  -16.5003   71.2875 O   0  0  0  0  0  0  0  0  0  0  0  0
  -18.0770  -17.3167   69.0629 O   0  0  0  0  0  0  0  0  0  0  0  0
  -15.7690  -18.3909   70.0463 O   0  0  0  0  0  0  0  0  0  0  0  0
  -11.8662  -10.8690   68.7235 C   0  0  0  0  0  0  0  0  0  0  0  0
  -10.6040  -10.6857   68.7292 O   0  0  0  0  0  0  0  0  0  0  0  0
  -12.7107   -9.9584   69.3322 O   0  0  0  0  0  0  0  0  0  0  0  0
  1  2  1  0
  2  3  1  0
  2  4  1  0
  4  5  1  6
  5  6  1  0
  6  7  2  0
  6  8  1  0
  8  9  1  6
  9 10  1  0
 10 11  2  0
 10 12  1  0
 12 13  1  6
 12 14  1  0
 14 15  1  0
 15 16  2  0
 17 15  1  1
 17 18  1  0
 18 19  1  0
 19 20  1  0
 20 21  1  0
 21 22  1  0
 22 23  2  0
 22 24  1  0
 24 25  1  6
 24 26  1  0
 26 27  1  0
 27 28  2  0
 28 29  1  0
 29 30  2  0
 30 31  1  0
 31 32  2  0
  8 33  1  0
 33 34  1  6
 33 35  1  0
 35 36  1  0
 36 37  2  0
 36 38  1  0
 36 39  1  0
  4 40  1  0
 40 41  2  0
 40 42  1  0
 21 17  1  0
 32 27  1  0
M  CHG  1  25   1
M  END
>  <shape_align_shape_tanimoto>  (2) 
0.3431609792206522

>  <shape_align_color_tanimoto>  (2) 
0.095401592533059409

>  <metric>  (2) 
color

>  <metric_score>  (2) 
0.095

>  <template_pid>  (2) 
6HMT

>  <template_shape_score>  (2) 
0.343

>  <template_color_score>  (2) 
0.095

>  <template_combo_score>  (2) 
0.219

$$$$
6HMT_combo_pose
     RDKit          3D

 42 43  0  0  0  0  0  0  0  0999 V2000
  -10.4898  -11.7066   70.0979 C   0  0  0  0  0  0  0  0  0  0  0  0
  -11.8653  -12.3160   70.1778 C   0  0  0  0  0  0  0  0  0  0  0  0
  -11.8905  -13.4839   71.1060 C   0  0  0  0  0  0  0  0  0  0  0  0
  -12.3685  -12.6327   68.7819 C   0  0  2  0  0  0  0  0  0  0  0  0
  -13.6905  -13.2161   68.8896 N   0  0  0  0  0  0  0  0  0  0  0  0
  -14.8419  -12.5256   68.4167 C   0  0  0  0  0  0  0  0  0  0  0  0
  -14.6173  -11.3788   67.9016 O   0  0  0  0  0  0  0  0  0  0  0  0
  -16.2101  -13.0633   68.4995 C   0  0  1  0  0  0  0  0  0  0  0  0
  -17.1317  -12.0902   67.9408 N   0  0  0  0  0  0  0  0  0  0  0  0
  -18.1278  -11.4408   68.7021 C   0  0  0  0  0  0  0  0  0  0  0  0
  -18.2828  -11.6692   69.9414 O   0  0  0  0  0  0  0  0  0  0  0  0
  -19.0767  -10.4367   68.1161 C   0  0  2  0  0  0  0  0  0  0  0  0
  -20.5062  -10.8656   68.2212 C   0  0  0  0  0  0  0  0  0  0  0  0
  -18.7540  -10.3167   66.7069 N   0  0  0  0  0  0  0  0  0  0  0  0
  -18.3618   -9.0971   66.0943 C   0  0  0  0  0  0  0  0  0  0  0  0
  -18.2565   -8.0070   66.7130 O   0  0  0  0  0  0  0  0  0  0  0  0
  -18.0641   -9.1293   64.6447 C   0  0  2  0  0  0  0  0  0  0  0  0
  -16.7932   -9.8938   64.3485 C   0  0  0  0  0  0  0  0  0  0  0  0
  -15.7912   -8.9340   65.0093 C   0  0  0  0  0  0  0  0  0  0  0  0
  -16.3351   -7.5484   64.6142 C   0  0  0  0  0  0  0  0  0  0  0  0
  -17.6733   -7.7838   64.1718 N   0  0  0  0  0  0  0  0  0  0  0  0
  -18.5838   -6.9881   63.4285 C   0  0  0  0  0  0  0  0  0  0  0  0
  -19.7555   -7.4792   63.1639 O   0  0  0  0  0  0  0  0  0  0  0  0
  -18.3542   -5.6454   62.9117 C   0  0  1  0  0  0  0  0  0  0  0  0
  -17.1083   -5.0238   63.1989 N   0  0  0  0  0  0  0  0  0  0  0  0
  -18.6496   -5.5094   61.4350 C   0  0  0  0  0  0  0  0  0  0  0  0
  -17.8572   -6.3641   60.5577 C   0  0  0  0  0  0  0  0  0  0  0  0
  -16.6472   -5.9253   60.0139 C   0  0  0  0  0  0  0  0  0  0  0  0
  -15.8849   -6.7214   59.1847 C   0  0  0  0  0  0  0  0  0  0  0  0
  -16.2812   -7.9976   58.8488 C   0  0  0  0  0  0  0  0  0  0  0  0
  -17.4657   -8.4482   59.3713 C   0  0  0  0  0  0  0  0  0  0  0  0
  -18.2322   -7.6472   60.2053 C   0  0  0  0  0  0  0  0  0  0  0  0
  -16.3436  -14.3356   67.6967 C   0  0  1  0  0  0  0  0  0  0  0  0
  -17.7892  -14.8319   67.7033 C   0  0  0  0  0  0  0  0  0  0  0  0
  -16.0344  -14.0709   66.3771 O   0  0  0  0  0  0  0  0  0  0  0  0
  -14.8939  -15.0842   65.7020 P   0  0  0  0  0  0  0  0  0  0  0  0
  -13.7293  -14.2431   65.1967 O   0  0  0  0  0  0  0  0  0  0  0  0
  -15.5002  -15.9422   64.3752 O   0  0  0  0  0  0  0  0  0  0  0  0
  -14.2816  -16.1310   66.8754 O   0  0  0  0  0  0  0  0  0  0  0  0
  -11.4214  -13.4515   68.0194 C   0  0  0  0  0  0  0  0  0  0  0  0
  -11.6827  -14.5636   67.4950 O   0  0  0  0  0  0  0  0  0  0  0  0
  -10.1284  -12.9740   67.8545 O   0  0  0  0  0  0  0  0  0  0  0  0
  1  2  1  0
  2  3  1  0
  2  4  1  0
  4  5  1  1
  5  6  1  0
  6  7  2  0
  6  8  1  0
  8  9  1  6
  9 10  1  0
 10 11  2  0
 10 12  1  0
 12 13  1  6
 12 14  1  0
 14 15  1  0
 15 16  2  0
 17 15  1  1
 17 18  1  0
 18 19  1  0
 19 20  1  0
 20 21  1  0
 21 22  1  0
 22 23  2  0
 22 24  1  0
 24 25  1  6
 24 26  1  0
 26 27  1  0
 27 28  2  0
 28 29  1  0
 29 30  2  0
 30 31  1  0
 31 32  2  0
  8 33  1  0
 33 34  1  6
 33 35  1  0
 35 36  1  0
 36 37  2  0
 36 38  1  0
 36 39  1  0
  4 40  1  0
 40 41  2  0
 40 42  1  0
 21 17  1  0
 32 27  1  0
M  CHG  1  25   1
M  END
>  <shape_align_shape_tanimoto>  (3) 
0.36495467572859525

>  <shape_align_color_tanimoto>  (3) 
0.076847328997931355

>  <metric>  (3) 
combo

>  <metric_score>  (3) 
0.221

>  <template_pid>  (3) 
6HMT

>  <template_shape_score>  (3) 
0.365

>  <template_color_score>  (3) 
0.077

>  <template_combo_score>  (3) 
0.221

$$$$
