6C7E_shape_pose
     RDKit          3D

 25 28  0  0  0  0  0  0  0  0999 V2000
   17.4199   44.2286   17.7061 C   0  0  0  0  0  0  0  0  0  0  0  0
   16.7421   44.4779   16.4317 N   0  0  0  0  0  0  0  0  0  0  0  0
   17.4398   44.6456   15.2218 C   0  0  0  0  0  0  0  0  0  0  0  0
   18.6943   44.5756   15.2550 O   0  0  0  0  0  0  0  0  0  0  0  0
   16.8232   44.8944   13.9314 C   0  0  0  0  0  0  0  0  0  0  0  0
   17.5962   45.0451   12.8104 C   0  0  0  0  0  0  0  0  0  0  0  0
   17.0863   45.2821   11.5554 C   0  0  0  0  0  0  0  0  0  0  0  0
   15.7020   45.3674   11.4617 C   0  0  0  0  0  0  0  0  0  0  0  0
   15.2301   45.5715   10.2027 N   0  0  0  0  0  0  0  0  0  0  0  0
   13.9123   45.6369   10.0220 C   0  0  0  0  0  0  0  0  0  0  0  0
   13.3577   45.8577    8.6554 C   0  0  0  0  0  0  0  0  0  0  0  0
   13.1034   45.4956   11.1231 C   0  0  0  0  0  0  0  0  0  0  0  0
   11.7648   45.5112   11.1862 N   0  0  0  0  0  0  0  0  0  0  0  0
   11.4227   45.3283   12.4452 N   0  0  0  0  0  0  0  0  0  0  0  0
   12.5528   45.1902   13.2300 C   0  0  0  0  0  0  0  0  0  0  0  0
   12.4282   44.9757   14.6365 C   0  0  0  0  0  0  0  0  0  0  0  0
   11.8455   43.7773   15.0594 C   0  0  0  0  0  0  0  0  0  0  0  0
   11.5916   43.5071   16.3731 C   0  0  0  0  0  0  0  0  0  0  0  0
   11.9061   44.4195   17.3367 C   0  0  0  0  0  0  0  0  0  0  0  0
   12.4836   45.6214   16.9774 C   0  0  0  0  0  0  0  0  0  0  0  0
   12.7295   45.8701   15.6425 C   0  0  0  0  0  0  0  0  0  0  0  0
   13.4311   47.3979   15.2134 Cl  0  0  0  0  0  0  0  0  0  0  0  0
   13.5564   45.2951   12.3761 N   0  0  0  0  0  0  0  0  0  0  0  0
   14.8702   45.2265   12.5526 C   0  0  0  0  0  0  0  0  0  0  0  0
   15.4350   44.9921   13.7648 C   0  0  0  0  0  0  0  0  0  0  0  0
  1  2  1  0
  2  3  1  0
  3  4  2  0
  3  5  1  0
  5  6  2  0
  6  7  1  0
  7  8  2  0
  8  9  1  0
  9 10  2  0
 10 11  1  0
 10 12  1  0
 12 13  2  0
 13 14  1  0
 14 15  2  0
 15 16  1  0
 16 17  2  0
 17 18  1  0
 18 19  2  0
 19 20  1  0
 20 21  2  0
 21 22  1  0
 15 23  1  0
 23 24  1  0
 24 25  2  0
 25  5  1  0
 24  8  1  0
 23 12  1  0
 21 16  1  0
M  END
>  <shape_align_shape_tanimoto>  (1) 
0.64515761094299573

>  <shape_align_color_tanimoto>  (1) 
0.11522326280451209

>  <metric>  (1) 
shape

>  <metric_score>  (1) 
0.645

>  <template_pid>  (1) 
6C7E

>  <template_shape_score>  (1) 
0.645

>  <template_color_score>  (1) 
0.115

>  <template_combo_score>  (1) 
0.380

$$$$
6C7E_color_pose
     RDKit          3D

 25 28  0  0  0  0  0  0  0  0999 V2000
   14.0385   45.1431   18.0577 C   0  0  0  0  0  0  0  0  0  0  0  0
   14.0765   45.2086   16.6136 N   0  0  0  0  0  0  0  0  0  0  0  0
   12.8462   45.1959   15.9044 C   0  0  0  0  0  0  0  0  0  0  0  0
   11.7966   45.1283   16.5750 O   0  0  0  0  0  0  0  0  0  0  0  0
   12.7486   45.2568   14.4544 C   0  0  0  0  0  0  0  0  0  0  0  0
   11.5022   45.2377   13.8719 C   0  0  0  0  0  0  0  0  0  0  0  0
   11.2938   45.2909   12.5090 C   0  0  0  0  0  0  0  0  0  0  0  0
   12.4206   45.3667   11.7168 C   0  0  0  0  0  0  0  0  0  0  0  0
   12.1950   45.4227   10.3740 N   0  0  0  0  0  0  0  0  0  0  0  0
   13.2395   45.5025    9.5209 C   0  0  0  0  0  0  0  0  0  0  0  0
   13.0758   45.5673    8.0463 C   0  0  0  0  0  0  0  0  0  0  0  0
   14.4938   45.5220   10.0830 C   0  0  0  0  0  0  0  0  0  0  0  0
   15.7023   45.5983    9.4569 N   0  0  0  0  0  0  0  0  0  0  0  0
   16.6287   45.5874   10.4017 N   0  0  0  0  0  0  0  0  0  0  0  0
   16.0532   45.5061   11.6222 C   0  0  0  0  0  0  0  0  0  0  0  0
   16.8422   45.4762   12.8387 C   0  0  0  0  0  0  0  0  0  0  0  0
   17.2504   46.6501   13.4921 C   0  0  0  0  0  0  0  0  0  0  0  0
   18.0293   46.6031   14.6328 C   0  0  0  0  0  0  0  0  0  0  0  0
   18.4409   45.3987   15.1806 C   0  0  0  0  0  0  0  0  0  0  0  0
   18.0458   44.2432   14.5472 C   0  0  0  0  0  0  0  0  0  0  0  0
   17.2751   44.2716   13.4179 C   0  0  0  0  0  0  0  0  0  0  0  0
   16.7857   42.7664   12.6299 Cl  0  0  0  0  0  0  0  0  0  0  0  0
   14.7353   45.4674   11.4048 N   0  0  0  0  0  0  0  0  0  0  0  0
   13.6941   45.3888   12.2474 C   0  0  0  0  0  0  0  0  0  0  0  0
   13.8423   45.3336   13.6149 C   0  0  0  0  0  0  0  0  0  0  0  0
  1  2  1  0
  2  3  1  0
  3  4  2  0
  3  5  1  0
  5  6  2  0
  6  7  1  0
  7  8  2  0
  8  9  1  0
  9 10  2  0
 10 11  1  0
 10 12  1  0
 12 13  2  0
 13 14  1  0
 14 15  2  0
 15 16  1  0
 16 17  2  0
 17 18  1  0
 18 19  2  0
 19 20  1  0
 20 21  2  0
 21 22  1  0
 15 23  1  0
 23 24  1  0
 24 25  2  0
 25  5  1  0
 24  8  1  0
 23 12  1  0
 21 16  1  0
M  END
>  <shape_align_shape_tanimoto>  (2) 
0.50985146646202173

>  <shape_align_color_tanimoto>  (2) 
0.18334020690306008

>  <metric>  (2) 
color

>  <metric_score>  (2) 
0.183

>  <template_pid>  (2) 
6C7E

>  <template_shape_score>  (2) 
0.510

>  <template_color_score>  (2) 
0.183

>  <template_combo_score>  (2) 
0.347

$$$$
6C7E_combo_pose
     RDKit          3D

 25 28  0  0  0  0  0  0  0  0999 V2000
   17.4199   44.2286   17.7061 C   0  0  0  0  0  0  0  0  0  0  0  0
   16.7421   44.4779   16.4317 N   0  0  0  0  0  0  0  0  0  0  0  0
   17.4398   44.6456   15.2218 C   0  0  0  0  0  0  0  0  0  0  0  0
   18.6943   44.5756   15.2550 O   0  0  0  0  0  0  0  0  0  0  0  0
   16.8232   44.8944   13.9314 C   0  0  0  0  0  0  0  0  0  0  0  0
   17.5962   45.0451   12.8104 C   0  0  0  0  0  0  0  0  0  0  0  0
   17.0863   45.2821   11.5554 C   0  0  0  0  0  0  0  0  0  0  0  0
   15.7020   45.3674   11.4617 C   0  0  0  0  0  0  0  0  0  0  0  0
   15.2301   45.5715   10.2027 N   0  0  0  0  0  0  0  0  0  0  0  0
   13.9123   45.6369   10.0220 C   0  0  0  0  0  0  0  0  0  0  0  0
   13.3577   45.8577    8.6554 C   0  0  0  0  0  0  0  0  0  0  0  0
   13.1034   45.4956   11.1231 C   0  0  0  0  0  0  0  0  0  0  0  0
   11.7648   45.5112   11.1862 N   0  0  0  0  0  0  0  0  0  0  0  0
   11.4227   45.3283   12.4452 N   0  0  0  0  0  0  0  0  0  0  0  0
   12.5528   45.1902   13.2300 C   0  0  0  0  0  0  0  0  0  0  0  0
   12.4282   44.9757   14.6365 C   0  0  0  0  0  0  0  0  0  0  0  0
   11.8455   43.7773   15.0594 C   0  0  0  0  0  0  0  0  0  0  0  0
   11.5916   43.5071   16.3731 C   0  0  0  0  0  0  0  0  0  0  0  0
   11.9061   44.4195   17.3367 C   0  0  0  0  0  0  0  0  0  0  0  0
   12.4836   45.6214   16.9774 C   0  0  0  0  0  0  0  0  0  0  0  0
   12.7295   45.8701   15.6425 C   0  0  0  0  0  0  0  0  0  0  0  0
   13.4311   47.3979   15.2134 Cl  0  0  0  0  0  0  0  0  0  0  0  0
   13.5564   45.2951   12.3761 N   0  0  0  0  0  0  0  0  0  0  0  0
   14.8702   45.2265   12.5526 C   0  0  0  0  0  0  0  0  0  0  0  0
   15.4350   44.9921   13.7648 C   0  0  0  0  0  0  0  0  0  0  0  0
  1  2  1  0
  2  3  1  0
  3  4  2  0
  3  5  1  0
  5  6  2  0
  6  7  1  0
  7  8  2  0
  8  9  1  0
  9 10  2  0
 10 11  1  0
 10 12  1  0
 12 13  2  0
 13 14  1  0
 14 15  2  0
 15 16  1  0
 16 17  2  0
 17 18  1  0
 18 19  2  0
 19 20  1  0
 20 21  2  0
 21 22  1  0
 15 23  1  0
 23 24  1  0
 24 25  2  0
 25  5  1  0
 24  8  1  0
 23 12  1  0
 21 16  1  0
M  END
>  <shape_align_shape_tanimoto>  (3) 
0.64515761094299573

>  <shape_align_color_tanimoto>  (3) 
0.11522326280451209

>  <metric>  (3) 
combo

>  <metric_score>  (3) 
0.380

>  <template_pid>  (3) 
6C7E

>  <template_shape_score>  (3) 
0.645

>  <template_color_score>  (3) 
0.115

>  <template_combo_score>  (3) 
0.380

$$$$
