6PNN_shape_pose
     RDKit          3D

 20 20  0  0  0  0  0  0  0  0999 V2000
   -0.4864   12.4870   25.2773 C   0  0  0  0  0  0  0  0  0  0  0  0
   -1.4848   13.1197   25.9990 O   0  0  0  0  0  0  0  0  0  0  0  0
   -2.7080   13.0677   25.3909 C   0  0  0  0  0  0  0  0  0  0  0  0
   -3.4503   11.7771   25.3163 C   0  0  0  0  0  0  0  0  0  0  0  0
   -2.8486   10.6475   24.6535 N   0  0  0  0  0  0  0  0  0  0  0  0
   -3.6455   10.2288   23.4932 C   0  0  0  0  0  0  0  0  0  0  0  0
   -2.5606    9.3305   25.7564 S   0  0  0  0  0  0  0  0  0  0  0  0
   -1.0880    8.9534   25.6735 O   0  0  0  0  0  0  0  0  0  0  0  0
   -2.8059    9.7789   27.1798 O   0  0  0  0  0  0  0  0  0  0  0  0
   -3.5309    7.8990   25.4274 C   0  0  0  0  0  0  0  0  0  0  0  0
   -4.5828    7.5601   26.3069 C   0  0  0  0  0  0  0  0  0  0  0  0
   -5.4066    6.4573   26.0705 C   0  0  0  0  0  0  0  0  0  0  0  0
   -6.4747    6.1322   26.9844 N   0  0  0  0  0  0  0  0  0  0  0  0
   -6.1457    5.2438   28.0637 C   0  0  0  0  0  0  0  0  0  0  0  0
   -7.1459    4.8129   29.0938 C   0  0  0  0  0  0  0  0  0  0  0  0
   -4.9410    4.8220   28.1183 O   0  0  0  0  0  0  0  0  0  0  0  0
   -5.2075    5.6488   24.9402 C   0  0  0  0  0  0  0  0  0  0  0  0
   -4.1737    5.9672   24.0612 C   0  0  0  0  0  0  0  0  0  0  0  0
   -3.3557    7.0812   24.3180 C   0  0  0  0  0  0  0  0  0  0  0  0
   -2.0406    7.3662   23.1716 Cl  0  0  0  0  0  0  0  0  0  0  0  0
  1  2  1  0
  2  3  1  0
  3  4  1  0
  4  5  1  0
  5  6  1  0
  5  7  1  0
  7  8  2  0
  7  9  2  0
  7 10  1  0
 10 11  2  0
 11 12  1  0
 12 13  1  0
 13 14  1  0
 14 15  1  0
 14 16  2  0
 12 17  2  0
 17 18  1  0
 18 19  2  0
 19 20  1  0
 19 10  1  0
M  END
>  <shape_align_shape_tanimoto>  (1) 
0.41977155905926533

>  <shape_align_color_tanimoto>  (1) 
0.031401859138409885

>  <metric>  (1) 
shape

>  <metric_score>  (1) 
0.420

>  <template_pid>  (1) 
6PNN

>  <template_shape_score>  (1) 
0.420

>  <template_color_score>  (1) 
0.031

>  <template_combo_score>  (1) 
0.226

$$$$
6PNN_color_pose
     RDKit          3D

 20 20  0  0  0  0  0  0  0  0999 V2000
   -0.2810   16.9937   21.6454 C   0  0  0  0  0  0  0  0  0  0  0  0
    0.4839   16.7246   22.7772 O   0  0  0  0  0  0  0  0  0  0  0  0
    0.4957   15.3664   23.0844 C   0  0  0  0  0  0  0  0  0  0  0  0
    1.3476   15.1945   24.3174 C   0  0  0  0  0  0  0  0  0  0  0  0
    1.4911   13.9122   24.8006 N   0  0  0  0  0  0  0  0  0  0  0  0
    2.5852   13.1326   24.2868 C   0  0  0  0  0  0  0  0  0  0  0  0
    0.5204   13.1865   25.9243 S   0  0  0  0  0  0  0  0  0  0  0  0
    1.1265   11.8260   26.2764 O   0  0  0  0  0  0  0  0  0  0  0  0
    0.5884   13.9969   27.2343 O   0  0  0  0  0  0  0  0  0  0  0  0
   -1.1492   12.9692   25.5460 C   0  0  0  0  0  0  0  0  0  0  0  0
   -1.5995   11.6761   25.2465 C   0  0  0  0  0  0  0  0  0  0  0  0
   -2.8666   11.3631   24.8895 C   0  0  0  0  0  0  0  0  0  0  0  0
   -3.3665   10.0764   24.5789 N   0  0  0  0  0  0  0  0  0  0  0  0
   -2.6347    8.8766   24.5836 C   0  0  0  0  0  0  0  0  0  0  0  0
   -3.2999    7.5910   24.2324 C   0  0  0  0  0  0  0  0  0  0  0  0
   -1.4183    8.8146   24.8736 O   0  0  0  0  0  0  0  0  0  0  0  0
   -3.7837   12.4103   24.8172 C   0  0  0  0  0  0  0  0  0  0  0  0
   -3.3930   13.6943   25.1016 C   0  0  0  0  0  0  0  0  0  0  0  0
   -2.0868   13.9626   25.4626 C   0  0  0  0  0  0  0  0  0  0  0  0
   -1.6812   15.5959   25.8664 Cl  0  0  0  0  0  0  0  0  0  0  0  0
  1  2  1  0
  2  3  1  0
  3  4  1  0
  4  5  1  0
  5  6  1  0
  5  7  1  0
  7  8  2  0
  7  9  2  0
  7 10  1  0
 10 11  2  0
 11 12  1  0
 12 13  1  0
 13 14  1  0
 14 15  1  0
 14 16  2  0
 12 17  2  0
 17 18  1  0
 18 19  2  0
 19 20  1  0
 19 10  1  0
M  END
>  <shape_align_shape_tanimoto>  (2) 
0.3786041510228042

>  <shape_align_color_tanimoto>  (2) 
0.082221599275434751

>  <metric>  (2) 
color

>  <metric_score>  (2) 
0.082

>  <template_pid>  (2) 
6PNN

>  <template_shape_score>  (2) 
0.379

>  <template_color_score>  (2) 
0.082

>  <template_combo_score>  (2) 
0.230

$$$$
6PNN_combo_pose
     RDKit          3D

 20 20  0  0  0  0  0  0  0  0999 V2000
   -2.5803   13.3965   24.6987 C   0  0  0  0  0  0  0  0  0  0  0  0
   -3.1919   12.3707   25.4490 O   0  0  0  0  0  0  0  0  0  0  0  0
   -2.3823   11.2554   25.2376 C   0  0  0  0  0  0  0  0  0  0  0  0
   -2.8700   10.0223   25.9672 C   0  0  0  0  0  0  0  0  0  0  0  0
   -2.0198    8.9130   25.7255 N   0  0  0  0  0  0  0  0  0  0  0  0
   -1.6405    8.1876   26.9004 C   0  0  0  0  0  0  0  0  0  0  0  0
   -2.3819    7.8682   24.4686 S   0  0  0  0  0  0  0  0  0  0  0  0
   -2.2997    8.4702   23.0976 O   0  0  0  0  0  0  0  0  0  0  0  0
   -1.2947    6.7950   24.4690 O   0  0  0  0  0  0  0  0  0  0  0  0
   -3.8849    7.0130   24.5628 C   0  0  0  0  0  0  0  0  0  0  0  0
   -4.7647    7.0751   25.6152 C   0  0  0  0  0  0  0  0  0  0  0  0
   -5.9551    6.3597   25.6524 C   0  0  0  0  0  0  0  0  0  0  0  0
   -6.8417    6.4460   26.7531 N   0  0  0  0  0  0  0  0  0  0  0  0
   -6.7626    5.5815   27.8813 C   0  0  0  0  0  0  0  0  0  0  0  0
   -7.7397    5.7568   28.9793 C   0  0  0  0  0  0  0  0  0  0  0  0
   -5.8954    4.6738   27.9834 O   0  0  0  0  0  0  0  0  0  0  0  0
   -6.3026    5.5396   24.6035 C   0  0  0  0  0  0  0  0  0  0  0  0
   -5.4175    5.4758   23.5434 C   0  0  0  0  0  0  0  0  0  0  0  0
   -4.2464    6.1789   23.5054 C   0  0  0  0  0  0  0  0  0  0  0  0
   -3.1897    6.0203   22.0968 Cl  0  0  0  0  0  0  0  0  0  0  0  0
  1  2  1  0
  2  3  1  0
  3  4  1  0
  4  5  1  0
  5  6  1  0
  5  7  1  0
  7  8  2  0
  7  9  2  0
  7 10  1  0
 10 11  2  0
 11 12  1  0
 12 13  1  0
 13 14  1  0
 14 15  1  0
 14 16  2  0
 12 17  2  0
 17 18  1  0
 18 19  2  0
 19 20  1  0
 19 10  1  0
M  END
>  <shape_align_shape_tanimoto>  (3) 
0.40680689322216307

>  <shape_align_color_tanimoto>  (3) 
0.062109576338977332

>  <metric>  (3) 
combo

>  <metric_score>  (3) 
0.234

>  <template_pid>  (3) 
6PNN

>  <template_shape_score>  (3) 
0.407

>  <template_color_score>  (3) 
0.062

>  <template_combo_score>  (3) 
0.234

$$$$
