2D06_shape_pose
     RDKit          3D

 20 23  0  0  0  0  0  0  0  0999 V2000
  -19.8254  -11.0748   67.0174 C   0  0  0  0  0  0  0  0  0  0  0  0
  -18.6884  -10.4316   67.7289 C   0  0  2  0  0  0  0  0  0  0  0  0
  -19.0088   -8.9864   68.0123 C   0  0  0  0  0  0  0  0  0  0  0  0
  -19.1771   -8.2065   66.7540 C   0  0  0  0  0  0  0  0  0  0  0  0
  -17.9852   -8.3668   65.8641 C   0  0  2  0  0  0  0  0  0  0  0  0
  -18.1086   -7.6239   64.5942 C   0  0  0  0  0  0  0  0  0  0  0  0
  -19.1393   -6.7874   64.2762 C   0  0  0  0  0  0  0  0  0  0  0  0
  -19.1239   -6.1562   63.0469 C   0  0  0  0  0  0  0  0  0  0  0  0
  -18.1101   -6.3351   62.1256 C   0  0  0  0  0  0  0  0  0  0  0  0
  -18.1097   -5.6920   60.8925 O   0  0  0  0  0  0  0  0  0  0  0  0
  -17.0724   -7.1829   62.4566 C   0  0  0  0  0  0  0  0  0  0  0  0
  -17.0865   -7.8040   63.6646 C   0  0  0  0  0  0  0  0  0  0  0  0
  -15.9946   -8.7433   64.1034 C   0  0  0  0  0  0  0  0  0  0  0  0
  -16.6664  -10.0285   64.5422 C   0  0  0  0  0  0  0  0  0  0  0  0
  -17.7003   -9.8538   65.6000 C   0  0  1  0  0  0  0  0  0  0  0  0
  -17.3899  -10.4143   66.9299 C   0  0  2  0  0  0  0  0  0  0  0  0
  -17.0031  -11.8567   66.9640 C   0  0  0  0  0  0  0  0  0  0  0  0
  -17.1437  -12.1309   68.4493 C   0  0  0  0  0  0  0  0  0  0  0  0
  -18.2545  -11.1956   68.9298 C   0  0  2  0  0  0  0  0  0  0  0  0
  -19.3202  -12.0510   69.2873 O   0  0  0  0  0  0  0  0  0  0  0  0
  2  1  1  6
  2  3  1  0
  3  4  1  0
  5  4  1  6
  5  6  1  0
  6  7  2  0
  7  8  1  0
  8  9  2  0
  9 10  1  0
  9 11  1  0
 11 12  2  0
 12 13  1  0
 13 14  1  0
 15 14  1  6
 15 16  1  0
 16 17  1  6
 17 18  1  0
 18 19  1  0
 19 20  1  6
 16  2  1  0
 19  2  1  0
 15  5  1  0
 12  6  1  0
M  END
>  <shape_align_shape_tanimoto>  (1) 
0.796672439154821

>  <shape_align_color_tanimoto>  (1) 
0.12033377114928881

>  <metric>  (1) 
shape

>  <metric_score>  (1) 
0.797

>  <template_pid>  (1) 
2D06

>  <template_shape_score>  (1) 
0.797

>  <template_color_score>  (1) 
0.120

>  <template_combo_score>  (1) 
0.459

$$$$
2D06_color_pose
     RDKit          3D

 20 23  0  0  0  0  0  0  0  0999 V2000
  -16.6647  -10.0459   68.5359 C   0  0  0  0  0  0  0  0  0  0  0  0
  -17.4291  -10.7529   67.4467 C   0  0  2  0  0  0  0  0  0  0  0  0
  -16.5408  -11.0226   66.2891 C   0  0  0  0  0  0  0  0  0  0  0  0
  -16.3595   -9.7377   65.5051 C   0  0  0  0  0  0  0  0  0  0  0  0
  -17.7042   -9.2211   65.1308 C   0  0  2  0  0  0  0  0  0  0  0  0
  -17.6771   -8.1553   64.1112 C   0  0  0  0  0  0  0  0  0  0  0  0
  -16.5609   -7.7298   63.4496 C   0  0  0  0  0  0  0  0  0  0  0  0
  -16.6430   -6.7227   62.5108 C   0  0  0  0  0  0  0  0  0  0  0  0
  -17.8499   -6.1054   62.2017 C   0  0  0  0  0  0  0  0  0  0  0  0
  -17.9355   -5.0867   61.2527 O   0  0  0  0  0  0  0  0  0  0  0  0
  -18.9843   -6.5305   62.8671 C   0  0  0  0  0  0  0  0  0  0  0  0
  -18.8755   -7.5399   63.8018 C   0  0  0  0  0  0  0  0  0  0  0  0
  -20.0750   -8.0463   64.5597 C   0  0  0  0  0  0  0  0  0  0  0  0
  -19.7383   -8.0631   66.0542 C   0  0  0  0  0  0  0  0  0  0  0  0
  -18.4919   -8.8241   66.3656 C   0  0  1  0  0  0  0  0  0  0  0  0
  -18.7335  -10.1085   67.0883 C   0  0  2  0  0  0  0  0  0  0  0  0
  -19.3764  -10.0315   68.4193 C   0  0  0  0  0  0  0  0  0  0  0  0
  -19.1157  -11.4503   68.9438 C   0  0  0  0  0  0  0  0  0  0  0  0
  -18.0048  -12.0229   68.0687 C   0  0  2  0  0  0  0  0  0  0  0  0
  -17.0741  -12.7491   68.7649 O   0  0  0  0  0  0  0  0  0  0  0  0
  2  1  1  1
  2  3  1  0
  3  4  1  0
  5  4  1  1
  5  6  1  0
  6  7  2  0
  7  8  1  0
  8  9  2  0
  9 10  1  0
  9 11  1  0
 11 12  2  0
 12 13  1  0
 13 14  1  0
 15 14  1  6
 15 16  1  0
 16 17  1  1
 17 18  1  0
 18 19  1  0
 19 20  1  1
 16  2  1  0
 19  2  1  0
 15  5  1  0
 12  6  1  0
M  END
>  <shape_align_shape_tanimoto>  (2) 
0.77726467988431058

>  <shape_align_color_tanimoto>  (2) 
0.14383832989399276

>  <metric>  (2) 
color

>  <metric_score>  (2) 
0.144

>  <template_pid>  (2) 
2D06

>  <template_shape_score>  (2) 
0.777

>  <template_color_score>  (2) 
0.144

>  <template_combo_score>  (2) 
0.461

$$$$
2D06_combo_pose
     RDKit          3D

 20 23  0  0  0  0  0  0  0  0999 V2000
  -16.7868  -10.1474   68.7963 C   0  0  0  0  0  0  0  0  0  0  0  0
  -17.3749  -10.7815   67.5673 C   0  0  2  0  0  0  0  0  0  0  0  0
  -16.4312  -10.9563   66.4333 C   0  0  0  0  0  0  0  0  0  0  0  0
  -16.3214   -9.7060   65.5917 C   0  0  0  0  0  0  0  0  0  0  0  0
  -17.6772   -9.2224   65.1993 C   0  0  2  0  0  0  0  0  0  0  0  0
  -17.6900   -8.1937   64.1699 C   0  0  0  0  0  0  0  0  0  0  0  0
  -16.6135   -7.8322   63.3837 C   0  0  0  0  0  0  0  0  0  0  0  0
  -16.6765   -6.8489   62.4197 C   0  0  0  0  0  0  0  0  0  0  0  0
  -17.8744   -6.1931   62.2304 C   0  0  0  0  0  0  0  0  0  0  0  0
  -18.0353   -5.1832   61.2779 O   0  0  0  0  0  0  0  0  0  0  0  0
  -18.9795   -6.5113   62.9842 C   0  0  0  0  0  0  0  0  0  0  0  0
  -18.8716   -7.5044   63.9406 C   0  0  0  0  0  0  0  0  0  0  0  0
  -20.0326   -7.8982   64.7927 C   0  0  0  0  0  0  0  0  0  0  0  0
  -19.6291   -8.0128   66.2481 C   0  0  0  0  0  0  0  0  0  0  0  0
  -18.4184   -8.8518   66.4719 C   0  0  1  0  0  0  0  0  0  0  0  0
  -18.6834  -10.1545   67.1357 C   0  0  2  0  0  0  0  0  0  0  0  0
  -19.4458  -10.1925   68.3844 C   0  0  0  0  0  0  0  0  0  0  0  0
  -19.1874  -11.6372   68.8360 C   0  0  0  0  0  0  0  0  0  0  0  0
  -17.9667  -12.1130   68.0485 C   0  0  2  0  0  0  0  0  0  0  0  0
  -17.0265  -12.7027   68.8861 O   0  0  0  0  0  0  0  0  0  0  0  0
  2  1  1  1
  2  3  1  0
  3  4  1  0
  5  4  1  1
  5  6  1  0
  6  7  2  0
  7  8  1  0
  8  9  2  0
  9 10  1  0
  9 11  1  0
 11 12  2  0
 12 13  1  0
 13 14  1  0
 15 14  1  6
 15 16  1  0
 16 17  1  1
 17 18  1  0
 18 19  1  0
 19 20  1  1
 16  2  1  0
 19  2  1  0
 15  5  1  0
 12  6  1  0
M  END
>  <shape_align_shape_tanimoto>  (3) 
0.78294338034071165

>  <shape_align_color_tanimoto>  (3) 
0.14000222686408101

>  <metric>  (3) 
combo

>  <metric_score>  (3) 
0.461

>  <template_pid>  (3) 
2D06

>  <template_shape_score>  (3) 
0.783

>  <template_color_score>  (3) 
0.140

>  <template_combo_score>  (3) 
0.461

$$$$
