1JTQ_shape_pose
     RDKit          3D

 33 36  0  0  0  0  0  0  0  0999 V2000
  -10.3282   53.2215   48.0778 N   0  0  0  0  0  0  0  0  0  0  0  0
  -11.3517   52.8827   49.0115 C   0  0  0  0  0  0  0  0  0  0  0  0
  -11.5928   51.5954   49.3288 N   0  0  0  0  0  0  0  0  0  0  0  0
  -12.5753   51.2958   50.2221 C   0  0  0  0  0  0  0  0  0  0  0  0
  -13.0148   50.1412   50.7339 N   0  0  0  0  0  0  0  0  0  0  0  0
  -14.0111   50.3714   51.6118 C   0  0  0  0  0  0  0  0  0  0  0  0
  -14.2453   51.7552   51.6846 C   0  0  0  0  0  0  0  0  0  0  0  0
  -15.3208   52.3136   52.4992 C   0  0  0  0  0  0  0  0  0  0  0  0
  -16.6172   52.3785   51.7526 C   0  0  0  0  0  0  0  0  0  0  0  0
  -16.5229   53.2159   50.5560 C   0  0  0  0  0  0  0  0  0  0  0  0
  -16.1184   52.6897   49.3377 C   0  0  0  0  0  0  0  0  0  0  0  0
  -16.0692   53.5223   48.2389 C   0  0  0  0  0  0  0  0  0  0  0  0
  -16.4104   54.8544   48.3255 C   0  0  0  0  0  0  0  0  0  0  0  0
  -16.3714   55.7717   47.1917 C   0  0  0  0  0  0  0  0  0  0  0  0
  -16.6965   56.9809   47.2763 O   0  0  0  0  0  0  0  0  0  0  0  0
  -15.9502   55.3152   45.9072 N   0  0  0  0  0  0  0  0  0  0  0  0
  -15.9250   56.2543   44.8070 C   0  0  1  0  0  0  0  0  0  0  0  0
  -14.5389   56.4156   44.2744 C   0  0  0  0  0  0  0  0  0  0  0  0
  -13.5190   56.9179   45.2348 C   0  0  0  0  0  0  0  0  0  0  0  0
  -13.8082   58.2559   45.7986 C   0  0  0  0  0  0  0  0  0  0  0  0
  -14.8430   59.0848   45.5766 N   0  0  0  0  0  0  0  0  0  0  0  0
  -14.6526   60.1617   46.3126 N   0  0  0  0  0  0  0  0  0  0  0  0
  -13.5278   60.0463   46.9977 N   0  0  0  0  0  0  0  0  0  0  0  0
  -12.9984   58.8652   46.6835 N   0  0  0  0  0  0  0  0  0  0  0  0
  -16.7890   55.8257   43.6725 C   0  0  0  0  0  0  0  0  0  0  0  0
  -17.2889   54.6869   43.5875 O   0  0  0  0  0  0  0  0  0  0  0  0
  -17.0160   56.7938   42.6816 O   0  0  0  0  0  0  0  0  0  0  0  0
  -16.8194   55.3920   49.5512 C   0  0  0  0  0  0  0  0  0  0  0  0
  -16.8717   54.5517   50.6712 C   0  0  0  0  0  0  0  0  0  0  0  0
  -13.3374   52.2924   50.8141 C   0  0  0  0  0  0  0  0  0  0  0  0
  -13.0648   53.5793   50.4711 C   0  0  0  0  0  0  0  0  0  0  0  0
  -13.6995   54.5372   50.9622 O   0  0  0  0  0  0  0  0  0  0  0  0
  -12.0949   53.8703   49.5894 N   0  0  0  0  0  0  0  0  0  0  0  0
  1  2  1  0
  2  3  2  0
  3  4  1  0
  4  5  1  0
  5  6  1  0
  6  7  2  0
  7  8  1  0
  8  9  1  0
  9 10  1  0
 10 11  2  0
 11 12  1  0
 12 13  2  0
 13 14  1  0
 14 15  2  0
 14 16  1  0
 16 17  1  0
 17 18  1  6
 18 19  1  0
 19 20  1  0
 20 21  2  0
 21 22  1  0
 22 23  2  0
 23 24  1  0
 17 25  1  0
 25 26  2  0
 25 27  1  0
 13 28  1  0
 28 29  2  0
  7 30  1  0
 30 31  1  0
 31 32  2  0
 31 33  1  0
 33  2  1  0
 30  4  2  0
 29 10  1  0
 24 20  1  0
M  CHG  1  27  -1
M  END
>  <shape_align_shape_tanimoto>  (1) 
0.48041643978358761

>  <shape_align_color_tanimoto>  (1) 
0.040604801082605134

>  <metric>  (1) 
shape

>  <metric_score>  (1) 
0.480

>  <template_pid>  (1) 
1JTQ

>  <template_shape_score>  (1) 
0.480

>  <template_color_score>  (1) 
0.041

>  <template_combo_score>  (1) 
0.261

$$$$
1JTQ_color_pose
     RDKit          3D

 33 36  0  0  0  0  0  0  0  0999 V2000
  -11.9417   62.3303   45.0359 N   0  0  0  0  0  0  0  0  0  0  0  0
  -11.5470   61.2685   45.9224 C   0  0  0  0  0  0  0  0  0  0  0  0
  -10.5446   61.4558   46.7697 N   0  0  0  0  0  0  0  0  0  0  0  0
  -10.1358   60.4960   47.6196 C   0  0  0  0  0  0  0  0  0  0  0  0
   -9.1775   60.4013   48.5651 N   0  0  0  0  0  0  0  0  0  0  0  0
   -9.2206   59.1838   49.1184 C   0  0  0  0  0  0  0  0  0  0  0  0
  -10.2371   58.4402   48.5270 C   0  0  0  0  0  0  0  0  0  0  0  0
  -10.5954   57.0620   48.8547 C   0  0  0  0  0  0  0  0  0  0  0  0
  -10.0814   56.0778   47.8278 C   0  0  0  0  0  0  0  0  0  0  0  0
  -10.4617   54.6849   48.1835 C   0  0  0  0  0  0  0  0  0  0  0  0
  -11.6652   54.2187   47.6941 C   0  0  0  0  0  0  0  0  0  0  0  0
  -12.0526   52.9289   48.0018 C   0  0  0  0  0  0  0  0  0  0  0  0
  -11.2950   52.0758   48.7778 C   0  0  0  0  0  0  0  0  0  0  0  0
  -11.7006   50.7138   49.1030 C   0  0  0  0  0  0  0  0  0  0  0  0
  -10.9477   49.9873   49.8309 O   0  0  0  0  0  0  0  0  0  0  0  0
  -12.9161   50.1325   48.6455 N   0  0  0  0  0  0  0  0  0  0  0  0
  -13.2640   48.8230   48.9822 C   0  0  1  0  0  0  0  0  0  0  0  0
  -14.4113   48.7061   49.9316 C   0  0  0  0  0  0  0  0  0  0  0  0
  -14.1890   49.3436   51.2324 C   0  0  0  0  0  0  0  0  0  0  0  0
  -14.1267   50.7901   51.3797 C   0  0  0  0  0  0  0  0  0  0  0  0
  -13.8141   51.3390   52.6129 N   0  0  0  0  0  0  0  0  0  0  0  0
  -13.8885   52.6386   52.5025 N   0  0  0  0  0  0  0  0  0  0  0  0
  -14.2264   52.9918   51.2928 N   0  0  0  0  0  0  0  0  0  0  0  0
  -14.3701   51.8411   50.6147 N   0  0  0  0  0  0  0  0  0  0  0  0
  -13.5047   47.9851   47.7577 C   0  0  0  0  0  0  0  0  0  0  0  0
  -13.5038   46.7417   47.7736 O   0  0  0  0  0  0  0  0  0  0  0  0
  -13.7421   48.6347   46.5368 O   0  0  0  0  0  0  0  0  0  0  0  0
  -10.0951   52.5593   49.2582 C   0  0  0  0  0  0  0  0  0  0  0  0
   -9.6752   53.8623   48.9635 C   0  0  0  0  0  0  0  0  0  0  0  0
  -10.7922   59.2846   47.5946 C   0  0  0  0  0  0  0  0  0  0  0  0
  -11.8435   59.1207   46.6903 C   0  0  0  0  0  0  0  0  0  0  0  0
  -12.4599   58.0397   46.6399 O   0  0  0  0  0  0  0  0  0  0  0  0
  -12.2144   60.1010   45.8660 N   0  0  0  0  0  0  0  0  0  0  0  0
  1  2  1  0
  2  3  2  0
  3  4  1  0
  4  5  1  0
  5  6  1  0
  6  7  2  0
  7  8  1  0
  8  9  1  0
  9 10  1  0
 10 11  2  0
 11 12  1  0
 12 13  2  0
 13 14  1  0
 14 15  2  0
 14 16  1  0
 16 17  1  0
 17 18  1  1
 18 19  1  0
 19 20  1  0
 20 21  2  0
 21 22  1  0
 22 23  2  0
 23 24  1  0
 17 25  1  0
 25 26  2  0
 25 27  1  0
 13 28  1  0
 28 29  2  0
  7 30  1  0
 30 31  1  0
 31 32  2  0
 31 33  1  0
 33  2  1  0
 30  4  2  0
 29 10  1  0
 24 20  1  0
M  CHG  1  27  -1
M  END
>  <shape_align_shape_tanimoto>  (2) 
0.37217502832771071

>  <shape_align_color_tanimoto>  (2) 
0.098867140982154572

>  <metric>  (2) 
color

>  <metric_score>  (2) 
0.099

>  <template_pid>  (2) 
1JTQ

>  <template_shape_score>  (2) 
0.372

>  <template_color_score>  (2) 
0.099

>  <template_combo_score>  (2) 
0.236

$$$$
1JTQ_combo_pose
     RDKit          3D

 33 36  0  0  0  0  0  0  0  0999 V2000
  -16.3342   50.3669   49.0816 N   0  0  0  0  0  0  0  0  0  0  0  0
  -15.2171   50.6877   49.9061 C   0  0  0  0  0  0  0  0  0  0  0  0
  -14.9676   50.0754   51.0652 N   0  0  0  0  0  0  0  0  0  0  0  0
  -13.8989   50.4083   51.8168 C   0  0  0  0  0  0  0  0  0  0  0  0
  -13.3995   49.9656   52.9875 N   0  0  0  0  0  0  0  0  0  0  0  0
  -12.2931   50.6369   53.2823 C   0  0  0  0  0  0  0  0  0  0  0  0
  -12.0162   51.5809   52.2782 C   0  0  0  0  0  0  0  0  0  0  0  0
  -10.8954   52.5099   52.3378 C   0  0  0  0  0  0  0  0  0  0  0  0
  -11.1407   53.8447   52.9380 C   0  0  0  0  0  0  0  0  0  0  0  0
  -12.1565   54.7021   52.3206 C   0  0  0  0  0  0  0  0  0  0  0  0
  -13.4747   54.6176   52.7566 C   0  0  0  0  0  0  0  0  0  0  0  0
  -14.4766   55.4175   52.2218 C   0  0  0  0  0  0  0  0  0  0  0  0
  -14.1950   56.3312   51.2307 C   0  0  0  0  0  0  0  0  0  0  0  0
  -15.1896   57.2129   50.6339 C   0  0  0  0  0  0  0  0  0  0  0  0
  -14.8697   57.9920   49.6767 O   0  0  0  0  0  0  0  0  0  0  0  0
  -16.5509   57.2495   51.0849 N   0  0  0  0  0  0  0  0  0  0  0  0
  -17.4231   58.1755   50.4001 C   0  0  1  0  0  0  0  0  0  0  0  0
  -18.7685   57.5709   50.1988 C   0  0  0  0  0  0  0  0  0  0  0  0
  -18.8449   56.3242   49.4031 C   0  0  0  0  0  0  0  0  0  0  0  0
  -18.1398   55.1520   49.9168 C   0  0  0  0  0  0  0  0  0  0  0  0
  -16.9150   54.6626   49.7465 N   0  0  0  0  0  0  0  0  0  0  0  0
  -16.7542   53.5604   50.4425 N   0  0  0  0  0  0  0  0  0  0  0  0
  -17.8789   53.3075   51.0848 N   0  0  0  0  0  0  0  0  0  0  0  0
  -18.7373   54.2648   50.7790 N   0  0  0  0  0  0  0  0  0  0  0  0
  -17.6250   59.4080   51.2627 C   0  0  0  0  0  0  0  0  0  0  0  0
  -18.6897   59.5807   51.9088 O   0  0  0  0  0  0  0  0  0  0  0  0
  -16.6245   60.3551   51.3399 O   0  0  0  0  0  0  0  0  0  0  0  0
  -12.8878   56.4149   50.7974 C   0  0  0  0  0  0  0  0  0  0  0  0
  -11.8734   55.6303   51.3138 C   0  0  0  0  0  0  0  0  0  0  0  0
  -13.0417   51.4077   51.3772 C   0  0  0  0  0  0  0  0  0  0  0  0
  -13.3230   52.0080   50.1963 C   0  0  0  0  0  0  0  0  0  0  0  0
  -12.5827   52.9114   49.7498 O   0  0  0  0  0  0  0  0  0  0  0  0
  -14.3907   51.6663   49.4584 N   0  0  0  0  0  0  0  0  0  0  0  0
  1  2  1  0
  2  3  2  0
  3  4  1  0
  4  5  1  0
  5  6  1  0
  6  7  2  0
  7  8  1  0
  8  9  1  0
  9 10  1  0
 10 11  2  0
 11 12  1  0
 12 13  2  0
 13 14  1  0
 14 15  2  0
 14 16  1  0
 16 17  1  0
 17 18  1  1
 18 19  1  0
 19 20  1  0
 20 21  2  0
 21 22  1  0
 22 23  2  0
 23 24  1  0
 17 25  1  0
 25 26  2  0
 25 27  1  0
 13 28  1  0
 28 29  2  0
  7 30  1  0
 30 31  1  0
 31 32  2  0
 31 33  1  0
 33  2  1  0
 30  4  2  0
 29 10  1  0
 24 20  1  0
M  CHG  1  27  -1
M  END
>  <shape_align_shape_tanimoto>  (3) 
0.47675344800276326

>  <shape_align_color_tanimoto>  (3) 
0.081205692211505962

>  <metric>  (3) 
combo

>  <metric_score>  (3) 
0.279

>  <template_pid>  (3) 
1JTQ

>  <template_shape_score>  (3) 
0.477

>  <template_color_score>  (3) 
0.081

>  <template_combo_score>  (3) 
0.279

$$$$
