2PH8_shape_pose
     RDKit          3D

 32 34  0  0  0  0  0  0  0  0999 V2000
   34.6384   46.4905   78.7529 C   0  0  0  0  0  0  0  0  0  0  0  0
   33.9572   47.6366   79.3963 C   0  0  2  0  0  0  0  0  0  0  0  0
   32.5658   47.4576   79.8621 C   0  0  0  0  0  0  0  0  0  0  0  0
   32.2061   46.3447   80.7810 C   0  0  0  0  0  0  0  0  0  0  0  0
   30.7080   46.5220   80.9485 C   0  0  0  0  0  0  0  0  0  0  0  0
   30.1436   46.8002   82.1665 C   0  0  0  0  0  0  0  0  0  0  0  0
   28.7769   46.9992   82.1927 C   0  0  0  0  0  0  0  0  0  0  0  0
   28.0201   46.9201   81.0444 C   0  0  0  0  0  0  0  0  0  0  0  0
   28.5974   46.6331   79.7921 C   0  0  0  0  0  0  0  0  0  0  0  0
   29.9546   46.4359   79.7698 C   0  0  0  0  0  0  0  0  0  0  0  0
   27.6754   46.5584   78.6630 C   0  0  0  0  0  0  0  0  0  0  0  0
   27.1379   47.7806   78.0658 C   0  0  1  0  0  0  0  0  0  0  0  0
   26.0069   47.2598   77.1065 C   0  0  0  0  0  0  0  0  0  0  0  0
   26.5011   48.6885   78.9619 N   0  0  0  0  0  0  0  0  0  0  0  0
   27.9661   48.5552   77.1061 C   0  0  0  0  0  0  0  0  0  0  0  0
   28.4952   47.8708   76.1631 O   0  0  0  0  0  0  0  0  0  0  0  0
   28.1963   49.8793   77.1306 O   0  0  0  0  0  0  0  0  0  0  0  0
   28.8955   50.7019   76.2820 C   0  0  0  0  0  0  0  0  0  0  0  0
   30.3011   50.4228   76.0627 C   0  0  0  0  0  0  0  0  0  0  0  0
   31.0868   49.5014   76.6935 C   0  0  0  0  0  0  0  0  0  0  0  0
   32.4511   49.3357   76.3558 C   0  0  0  0  0  0  0  0  0  0  0  0
   33.0155   50.0793   75.4065 N   0  0  0  0  0  0  0  0  0  0  0  0
   32.2643   51.0178   74.7470 C   0  0  0  0  0  0  0  0  0  0  0  0
   32.8912   51.7969   73.7398 N   0  0  0  0  0  0  0  0  0  0  0  0
   32.1040   52.7926   73.0364 C   0  0  0  0  0  0  0  0  0  0  0  0
   34.5640   51.5192   73.4017 S   0  0  0  0  0  0  0  0  0  0  0  0
   35.5907   51.8383   74.8004 C   0  0  0  0  0  0  0  0  0  0  0  0
   35.0244   52.3822   72.2639 O   0  0  0  0  0  0  0  0  0  0  0  0
   34.6525   50.0685   72.9632 O   0  0  0  0  0  0  0  0  0  0  0  0
   30.9419   51.1841   75.0676 C   0  0  0  0  0  0  0  0  0  0  0  0
   33.1277   48.2732   77.1395 C   0  0  0  0  0  0  0  0  0  0  0  0
   33.8133   48.8074   78.3635 C   0  0  0  0  0  0  0  0  0  0  0  0
  2  1  1  6
  2  3  1  0
  3  4  1  0
  4  5  1  0
  5  6  1  0
  6  7  2  0
  7  8  1  0
  8  9  2  0
  9 10  1  0
  9 11  1  0
 11 12  1  0
 12 13  1  6
 12 14  1  0
 12 15  1  0
 15 16  2  0
 15 17  1  0
 17 18  1  0
 18 19  1  0
 19 20  1  0
 20 21  2  0
 21 22  1  0
 22 23  2  0
 23 24  1  0
 24 25  1  0
 24 26  1  0
 26 27  1  0
 26 28  2  0
 26 29  2  0
 23 30  1  0
 21 31  1  0
 31 32  1  0
 32  2  1  0
 10  5  2  0
 30 19  2  0
M  CHG  1  14   1
M  END
>  <shape_align_shape_tanimoto>  (1) 
0.66325381362691305

>  <shape_align_color_tanimoto>  (1) 
0.039677273916230021

>  <metric>  (1) 
shape

>  <metric_score>  (1) 
0.663

>  <template_pid>  (1) 
2PH8

>  <template_shape_score>  (1) 
0.663

>  <template_color_score>  (1) 
0.040

>  <template_combo_score>  (1) 
0.351

$$$$
2PH8_color_pose
     RDKit          3D

 32 34  0  0  0  0  0  0  0  0999 V2000
   28.9509   54.0259   75.1411 C   0  0  0  0  0  0  0  0  0  0  0  0
   29.7275   52.6452   74.9421 C   0  0  2  0  0  0  0  0  0  0  0  0
   30.5308   52.9520   73.7180 C   0  0  0  0  0  0  0  0  0  0  0  0
   31.5117   52.0082   73.1917 C   0  0  0  0  0  0  0  0  0  0  0  0
   32.6548   51.6671   74.0749 C   0  0  0  0  0  0  0  0  0  0  0  0
   33.0625   52.6236   74.9761 C   0  0  0  0  0  0  0  0  0  0  0  0
   34.0902   52.2923   75.8242 C   0  0  0  0  0  0  0  0  0  0  0  0
   34.6806   51.0555   75.7692 C   0  0  0  0  0  0  0  0  0  0  0  0
   34.2845   50.0637   74.8613 C   0  0  0  0  0  0  0  0  0  0  0  0
   33.2615   50.3990   74.0165 C   0  0  0  0  0  0  0  0  0  0  0  0
   34.9777   48.7818   74.9422 C   0  0  0  0  0  0  0  0  0  0  0  0
   34.1713   47.6044   75.3153 C   0  0  1  0  0  0  0  0  0  0  0  0
   33.1295   47.3175   74.2011 C   0  0  0  0  0  0  0  0  0  0  0  0
   34.8837   46.3760   75.4607 N   0  0  0  0  0  0  0  0  0  0  0  0
   33.3121   47.8199   76.5155 C   0  0  0  0  0  0  0  0  0  0  0  0
   32.7215   46.8443   77.0464 O   0  0  0  0  0  0  0  0  0  0  0  0
   33.2033   49.1001   76.9939 O   0  0  0  0  0  0  0  0  0  0  0  0
   32.3770   49.4583   78.1251 C   0  0  0  0  0  0  0  0  0  0  0  0
   30.9507   49.1987   77.7690 C   0  0  0  0  0  0  0  0  0  0  0  0
   30.5281   49.7630   76.5760 C   0  0  0  0  0  0  0  0  0  0  0  0
   29.2520   49.6357   76.0784 C   0  0  0  0  0  0  0  0  0  0  0  0
   28.4016   48.9064   76.8409 N   0  0  0  0  0  0  0  0  0  0  0  0
   28.7831   48.3357   78.0222 C   0  0  0  0  0  0  0  0  0  0  0  0
   27.8348   47.5834   78.7690 N   0  0  0  0  0  0  0  0  0  0  0  0
   26.4758   47.4285   78.2735 C   0  0  0  0  0  0  0  0  0  0  0  0
   28.2975   46.8435   80.2822 S   0  0  0  0  0  0  0  0  0  0  0  0
   28.8021   48.0216   81.4821 C   0  0  0  0  0  0  0  0  0  0  0  0
   29.3569   45.7919   80.0312 O   0  0  0  0  0  0  0  0  0  0  0  0
   27.1179   46.0919   80.8297 O   0  0  0  0  0  0  0  0  0  0  0  0
   30.0708   48.4704   78.5128 C   0  0  0  0  0  0  0  0  0  0  0  0
   28.8271   50.2385   74.8012 C   0  0  0  0  0  0  0  0  0  0  0  0
   28.6044   51.6915   74.7876 C   0  0  0  0  0  0  0  0  0  0  0  0
  2  1  1  6
  2  3  1  0
  3  4  1  0
  4  5  1  0
  5  6  1  0
  6  7  2  0
  7  8  1  0
  8  9  2  0
  9 10  1  0
  9 11  1  0
 11 12  1  0
 12 13  1  6
 12 14  1  0
 12 15  1  0
 15 16  2  0
 15 17  1  0
 17 18  1  0
 18 19  1  0
 19 20  1  0
 20 21  2  0
 21 22  1  0
 22 23  2  0
 23 24  1  0
 24 25  1  0
 24 26  1  0
 26 27  1  0
 26 28  2  0
 26 29  2  0
 23 30  1  0
 21 31  1  0
 31 32  1  0
 32  2  1  0
 10  5  2  0
 30 19  2  0
M  CHG  1  14   1
M  END
>  <shape_align_shape_tanimoto>  (2) 
0.54310008289855083

>  <shape_align_color_tanimoto>  (2) 
0.11736563052804093

>  <metric>  (2) 
color

>  <metric_score>  (2) 
0.117

>  <template_pid>  (2) 
2PH8

>  <template_shape_score>  (2) 
0.543

>  <template_color_score>  (2) 
0.117

>  <template_combo_score>  (2) 
0.330

$$$$
2PH8_combo_pose
     RDKit          3D

 32 34  0  0  0  0  0  0  0  0999 V2000
   34.6384   46.4905   78.7529 C   0  0  0  0  0  0  0  0  0  0  0  0
   33.9572   47.6366   79.3963 C   0  0  2  0  0  0  0  0  0  0  0  0
   32.5658   47.4576   79.8621 C   0  0  0  0  0  0  0  0  0  0  0  0
   32.2061   46.3447   80.7810 C   0  0  0  0  0  0  0  0  0  0  0  0
   30.7080   46.5220   80.9485 C   0  0  0  0  0  0  0  0  0  0  0  0
   30.1436   46.8002   82.1665 C   0  0  0  0  0  0  0  0  0  0  0  0
   28.7769   46.9992   82.1927 C   0  0  0  0  0  0  0  0  0  0  0  0
   28.0201   46.9201   81.0444 C   0  0  0  0  0  0  0  0  0  0  0  0
   28.5974   46.6331   79.7921 C   0  0  0  0  0  0  0  0  0  0  0  0
   29.9546   46.4359   79.7698 C   0  0  0  0  0  0  0  0  0  0  0  0
   27.6754   46.5584   78.6630 C   0  0  0  0  0  0  0  0  0  0  0  0
   27.1379   47.7806   78.0658 C   0  0  1  0  0  0  0  0  0  0  0  0
   26.0069   47.2598   77.1065 C   0  0  0  0  0  0  0  0  0  0  0  0
   26.5011   48.6885   78.9619 N   0  0  0  0  0  0  0  0  0  0  0  0
   27.9661   48.5552   77.1061 C   0  0  0  0  0  0  0  0  0  0  0  0
   28.4952   47.8708   76.1631 O   0  0  0  0  0  0  0  0  0  0  0  0
   28.1963   49.8793   77.1306 O   0  0  0  0  0  0  0  0  0  0  0  0
   28.8955   50.7019   76.2820 C   0  0  0  0  0  0  0  0  0  0  0  0
   30.3011   50.4228   76.0627 C   0  0  0  0  0  0  0  0  0  0  0  0
   31.0868   49.5014   76.6935 C   0  0  0  0  0  0  0  0  0  0  0  0
   32.4511   49.3357   76.3558 C   0  0  0  0  0  0  0  0  0  0  0  0
   33.0155   50.0793   75.4065 N   0  0  0  0  0  0  0  0  0  0  0  0
   32.2643   51.0178   74.7470 C   0  0  0  0  0  0  0  0  0  0  0  0
   32.8912   51.7969   73.7398 N   0  0  0  0  0  0  0  0  0  0  0  0
   32.1040   52.7926   73.0364 C   0  0  0  0  0  0  0  0  0  0  0  0
   34.5640   51.5192   73.4017 S   0  0  0  0  0  0  0  0  0  0  0  0
   35.5907   51.8383   74.8004 C   0  0  0  0  0  0  0  0  0  0  0  0
   35.0244   52.3822   72.2639 O   0  0  0  0  0  0  0  0  0  0  0  0
   34.6525   50.0685   72.9632 O   0  0  0  0  0  0  0  0  0  0  0  0
   30.9419   51.1841   75.0676 C   0  0  0  0  0  0  0  0  0  0  0  0
   33.1277   48.2732   77.1395 C   0  0  0  0  0  0  0  0  0  0  0  0
   33.8133   48.8074   78.3635 C   0  0  0  0  0  0  0  0  0  0  0  0
  2  1  1  6
  2  3  1  0
  3  4  1  0
  4  5  1  0
  5  6  1  0
  6  7  2  0
  7  8  1  0
  8  9  2  0
  9 10  1  0
  9 11  1  0
 11 12  1  0
 12 13  1  6
 12 14  1  0
 12 15  1  0
 15 16  2  0
 15 17  1  0
 17 18  1  0
 18 19  1  0
 19 20  1  0
 20 21  2  0
 21 22  1  0
 22 23  2  0
 23 24  1  0
 24 25  1  0
 24 26  1  0
 26 27  1  0
 26 28  2  0
 26 29  2  0
 23 30  1  0
 21 31  1  0
 31 32  1  0
 32  2  1  0
 10  5  2  0
 30 19  2  0
M  CHG  1  14   1
M  END
>  <shape_align_shape_tanimoto>  (3) 
0.66325381362691305

>  <shape_align_color_tanimoto>  (3) 
0.039677273916230021

>  <metric>  (3) 
combo

>  <metric_score>  (3) 
0.351

>  <template_pid>  (3) 
2PH8

>  <template_shape_score>  (3) 
0.663

>  <template_color_score>  (3) 
0.040

>  <template_combo_score>  (3) 
0.351

$$$$
