4R17_shape_pose
     RDKit          3D

  6  6  0  0  0  0  0  0  0  0999 V2000
    1.8429   44.3319   -8.7733 C   0  0  0  0  0  0  0  0  0  0  0  0
    1.4705   44.9569  -10.1111 C   0  0  2  0  0  0  0  0  0  0  0  0
    0.2467   44.4987  -10.7348 N   0  0  0  0  0  0  0  0  0  0  0  0
    1.5613   44.3226  -11.3698 C   0  0  2  0  0  0  0  0  0  0  0  0
    1.8833   42.8852  -11.5984 C   0  0  0  0  0  0  0  0  0  0  0  0
    2.3270   42.4765  -12.6707 O   0  0  0  0  0  0  0  0  0  0  0  0
  2  1  1  1
  2  3  1  0
  3  4  1  0
  4  5  1  1
  5  6  2  0
  4  2  1  0
M  CHG  1   3   1
M  END
>  <shape_align_shape_tanimoto>  (1) 
0.057188073982785498

>  <shape_align_color_tanimoto>  (1) 
0.0017821431338732137

>  <metric>  (1) 
shape

>  <metric_score>  (1) 
0.057

>  <template_pid>  (1) 
4R17

>  <template_shape_score>  (1) 
0.057

>  <template_color_score>  (1) 
0.002

>  <template_combo_score>  (1) 
0.029

$$$$
4R17_color_pose
     RDKit          3D

  6  6  0  0  0  0  0  0  0  0999 V2000
    0.9030   42.4408  -13.9206 C   0  0  0  0  0  0  0  0  0  0  0  0
    2.2683   42.2814  -13.3066 C   0  0  2  0  0  0  0  0  0  0  0  0
    2.4468   41.5614  -12.0755 N   0  0  0  0  0  0  0  0  0  0  0  0
    2.4816   42.9883  -11.9683 C   0  0  2  0  0  0  0  0  0  0  0  0
    1.2861   43.6905  -11.4094 C   0  0  0  0  0  0  0  0  0  0  0  0
    1.4626   44.8212  -10.9567 O   0  0  0  0  0  0  0  0  0  0  0  0
  2  1  1  1
  2  3  1  0
  3  4  1  0
  4  5  1  1
  5  6  2  0
  4  2  1  0
M  CHG  1   3   1
M  END
>  <shape_align_shape_tanimoto>  (2) 
0.055022544589596052

>  <shape_align_color_tanimoto>  (2) 
0.014186947453924402

>  <metric>  (2) 
color

>  <metric_score>  (2) 
0.014

>  <template_pid>  (2) 
4R17

>  <template_shape_score>  (2) 
0.055

>  <template_color_score>  (2) 
0.014

>  <template_combo_score>  (2) 
0.035

$$$$
4R17_combo_pose
     RDKit          3D

  6  6  0  0  0  0  0  0  0  0999 V2000
    0.9030   42.4408  -13.9206 C   0  0  0  0  0  0  0  0  0  0  0  0
    2.2683   42.2814  -13.3066 C   0  0  2  0  0  0  0  0  0  0  0  0
    2.4468   41.5614  -12.0755 N   0  0  0  0  0  0  0  0  0  0  0  0
    2.4816   42.9883  -11.9683 C   0  0  2  0  0  0  0  0  0  0  0  0
    1.2861   43.6905  -11.4094 C   0  0  0  0  0  0  0  0  0  0  0  0
    1.4626   44.8212  -10.9567 O   0  0  0  0  0  0  0  0  0  0  0  0
  2  1  1  1
  2  3  1  0
  3  4  1  0
  4  5  1  1
  5  6  2  0
  4  2  1  0
M  CHG  1   3   1
M  END
>  <shape_align_shape_tanimoto>  (3) 
0.055022544589596052

>  <shape_align_color_tanimoto>  (3) 
0.014186947453924402

>  <metric>  (3) 
combo

>  <metric_score>  (3) 
0.035

>  <template_pid>  (3) 
4R17

>  <template_shape_score>  (3) 
0.055

>  <template_color_score>  (3) 
0.014

>  <template_combo_score>  (3) 
0.035

$$$$
