1FKW_shape_pose
     RDKit          3D

 18 20  0  0  0  0  0  0  0  0999 V2000
    9.0368   20.2770   35.4724 O   0  0  0  0  0  0  0  0  0  0  0  0
    9.3603   19.7294   36.6893 C   0  0  0  0  0  0  0  0  0  0  0  0
    8.2518   18.9561   37.2962 C   0  0  1  0  0  0  0  0  0  0  0  0
    7.1054   19.7547   37.5177 O   0  0  0  0  0  0  0  0  0  0  0  0
    6.1063   18.8788   37.8798 C   0  0  1  0  0  0  0  0  0  0  0  0
    4.8079   19.3121   37.4221 N   0  0  0  0  0  0  0  0  0  0  0  0
    4.4264   19.4288   36.1274 C   0  0  0  0  0  0  0  0  0  0  0  0
    3.1346   19.8635   36.0825 N   0  0  0  0  0  0  0  0  0  0  0  0
    2.6961   20.0227   37.3363 C   0  0  0  0  0  0  0  0  0  0  0  0
    1.4700   20.4404   37.8402 C   0  0  0  0  0  0  0  0  0  0  0  0
    1.3417   20.4959   39.1787 N   0  0  0  0  0  0  0  0  0  0  0  0
    2.3675   20.1577   39.9798 C   0  0  0  0  0  0  0  0  0  0  0  0
    3.5578   19.7524   39.5182 N   0  0  0  0  0  0  0  0  0  0  0  0
    3.7392   19.6791   38.1869 C   0  0  0  0  0  0  0  0  0  0  0  0
    6.4732   17.5123   37.3088 C   0  0  2  0  0  0  0  0  0  0  0  0
    6.9398   16.7397   38.3515 O   0  0  0  0  0  0  0  0  0  0  0  0
    7.6533   17.8976   36.4240 C   0  0  2  0  0  0  0  0  0  0  0  0
    8.4977   16.8321   36.1656 O   0  0  0  0  0  0  0  0  0  0  0  0
  1  2  1  0
  3  2  1  6
  3  4  1  0
  4  5  1  0
  5  6  1  6
  6  7  1  0
  7  8  2  0
  8  9  1  0
  9 10  2  0
 10 11  1  0
 11 12  2  0
 12 13  1  0
 13 14  2  0
  5 15  1  0
 15 16  1  1
 15 17  1  0
 17 18  1  1
 17  3  1  0
 14  6  1  0
 14  9  1  0
M  END
>  <shape_align_shape_tanimoto>  (1) 
0.9754935023477791

>  <shape_align_color_tanimoto>  (1) 
0.22769824964454194

>  <metric>  (1) 
shape

>  <metric_score>  (1) 
0.975

>  <template_pid>  (1) 
1FKW

>  <template_shape_score>  (1) 
0.975

>  <template_color_score>  (1) 
0.228

>  <template_combo_score>  (1) 
0.602

$$$$
1FKW_color_pose
     RDKit          3D

 18 20  0  0  0  0  0  0  0  0999 V2000
    9.1294   20.2861   35.4428 O   0  0  0  0  0  0  0  0  0  0  0  0
    8.1668   20.3891   36.4429 C   0  0  0  0  0  0  0  0  0  0  0  0
    8.0926   19.1005   37.2329 C   0  0  1  0  0  0  0  0  0  0  0  0
    7.1364   19.2491   38.2010 O   0  0  0  0  0  0  0  0  0  0  0  0
    6.0819   18.3907   37.9563 C   0  0  1  0  0  0  0  0  0  0  0  0
    4.9228   19.0122   37.3860 N   0  0  0  0  0  0  0  0  0  0  0  0
    4.6384   19.2041   36.0938 C   0  0  0  0  0  0  0  0  0  0  0  0
    3.4430   19.8297   35.9571 N   0  0  0  0  0  0  0  0  0  0  0  0
    2.9433   20.0471   37.1916 C   0  0  0  0  0  0  0  0  0  0  0  0
    1.7729   20.6392   37.6587 C   0  0  0  0  0  0  0  0  0  0  0  0
    1.5570   20.7061   38.9844 N   0  0  0  0  0  0  0  0  0  0  0  0
    2.4743   20.2007   39.8300 C   0  0  0  0  0  0  0  0  0  0  0  0
    3.6158   19.6230   39.3818 N   0  0  0  0  0  0  0  0  0  0  0  0
    3.8768   19.5325   38.0640 C   0  0  0  0  0  0  0  0  0  0  0  0
    6.6587   17.2626   37.1805 C   0  0  2  0  0  0  0  0  0  0  0  0
    7.2890   16.3919   38.0986 O   0  0  0  0  0  0  0  0  0  0  0  0
    7.7638   17.9187   36.3898 C   0  0  2  0  0  0  0  0  0  0  0  0
    8.8455   17.0164   36.2759 O   0  0  0  0  0  0  0  0  0  0  0  0
  1  2  1  0
  3  2  1  6
  3  4  1  0
  4  5  1  0
  5  6  1  6
  6  7  1  0
  7  8  2  0
  8  9  1  0
  9 10  2  0
 10 11  1  0
 11 12  2  0
 12 13  1  0
 13 14  2  0
  5 15  1  0
 15 16  1  1
 15 17  1  0
 17 18  1  1
 17  3  1  0
 14  6  1  0
 14  9  1  0
M  END
>  <shape_align_shape_tanimoto>  (2) 
0.96000111802448396

>  <shape_align_color_tanimoto>  (2) 
0.2296747606515688

>  <metric>  (2) 
color

>  <metric_score>  (2) 
0.230

>  <template_pid>  (2) 
1FKW

>  <template_shape_score>  (2) 
0.960

>  <template_color_score>  (2) 
0.230

>  <template_combo_score>  (2) 
0.595

$$$$
1FKW_combo_pose
     RDKit          3D

 18 20  0  0  0  0  0  0  0  0999 V2000
    9.0368   20.2770   35.4724 O   0  0  0  0  0  0  0  0  0  0  0  0
    9.3603   19.7294   36.6893 C   0  0  0  0  0  0  0  0  0  0  0  0
    8.2518   18.9561   37.2962 C   0  0  1  0  0  0  0  0  0  0  0  0
    7.1054   19.7547   37.5177 O   0  0  0  0  0  0  0  0  0  0  0  0
    6.1063   18.8788   37.8798 C   0  0  1  0  0  0  0  0  0  0  0  0
    4.8079   19.3121   37.4221 N   0  0  0  0  0  0  0  0  0  0  0  0
    4.4264   19.4288   36.1274 C   0  0  0  0  0  0  0  0  0  0  0  0
    3.1346   19.8635   36.0825 N   0  0  0  0  0  0  0  0  0  0  0  0
    2.6961   20.0227   37.3363 C   0  0  0  0  0  0  0  0  0  0  0  0
    1.4700   20.4404   37.8402 C   0  0  0  0  0  0  0  0  0  0  0  0
    1.3417   20.4959   39.1787 N   0  0  0  0  0  0  0  0  0  0  0  0
    2.3675   20.1577   39.9798 C   0  0  0  0  0  0  0  0  0  0  0  0
    3.5578   19.7524   39.5182 N   0  0  0  0  0  0  0  0  0  0  0  0
    3.7392   19.6791   38.1869 C   0  0  0  0  0  0  0  0  0  0  0  0
    6.4732   17.5123   37.3088 C   0  0  2  0  0  0  0  0  0  0  0  0
    6.9398   16.7397   38.3515 O   0  0  0  0  0  0  0  0  0  0  0  0
    7.6533   17.8976   36.4240 C   0  0  2  0  0  0  0  0  0  0  0  0
    8.4977   16.8321   36.1656 O   0  0  0  0  0  0  0  0  0  0  0  0
  1  2  1  0
  3  2  1  6
  3  4  1  0
  4  5  1  0
  5  6  1  6
  6  7  1  0
  7  8  2  0
  8  9  1  0
  9 10  2  0
 10 11  1  0
 11 12  2  0
 12 13  1  0
 13 14  2  0
  5 15  1  0
 15 16  1  1
 15 17  1  0
 17 18  1  1
 17  3  1  0
 14  6  1  0
 14  9  1  0
M  END
>  <shape_align_shape_tanimoto>  (3) 
0.9754935023477791

>  <shape_align_color_tanimoto>  (3) 
0.22769824964454194

>  <metric>  (3) 
combo

>  <metric_score>  (3) 
0.602

>  <template_pid>  (3) 
1FKW

>  <template_shape_score>  (3) 
0.975

>  <template_color_score>  (3) 
0.228

>  <template_combo_score>  (3) 
0.602

$$$$
