3MNA_shape_pose
     RDKit          3D

 24 25  0  0  0  0  0  0  0  0999 V2000
   16.6080    1.6349   18.7925 C   0  0  0  0  0  0  0  0  0  0  0  0
   15.9211    0.8384   17.8478 O   0  0  0  0  0  0  0  0  0  0  0  0
   14.5470    0.7900   17.7469 C   0  0  0  0  0  0  0  0  0  0  0  0
   13.8159    1.4858   18.5286 O   0  0  0  0  0  0  0  0  0  0  0  0
   13.8279   -0.0446   16.7573 C   0  0  0  0  0  0  0  0  0  0  0  0
   14.8248   -0.7491   15.9738 N   0  0  0  0  0  0  0  0  0  0  0  0
   15.7840   -0.0409   15.2043 C   0  0  0  0  0  0  0  0  0  0  0  0
   16.6918   -0.7820   14.5040 N   0  0  0  0  0  0  0  0  0  0  0  0
   17.6064   -0.1430   13.7696 C   0  0  0  0  0  0  0  0  0  0  0  0
   18.8096   -1.0274   12.8394 Cl  0  0  0  0  0  0  0  0  0  0  0  0
   17.6104    1.1908   13.7387 N   0  0  0  0  0  0  0  0  0  0  0  0
   16.7059    1.9338   14.4363 C   0  0  0  0  0  0  0  0  0  0  0  0
   16.8238    3.3384   14.3162 N   0  0  0  0  0  0  0  0  0  0  0  0
   16.0031    4.3087   14.9268 C   0  0  0  0  0  0  0  0  0  0  0  0
   16.2839    5.6707   14.7255 C   0  0  0  0  0  0  0  0  0  0  0  0
   15.5217    6.6655   15.2905 C   0  0  0  0  0  0  0  0  0  0  0  0
   14.4359    6.3807   16.0886 C   0  0  0  0  0  0  0  0  0  0  0  0
   13.4936    7.6783   16.7875 S   0  0  0  0  0  0  0  0  0  0  0  0
   12.2066    8.1466   15.7455 N   0  0  0  0  0  0  0  0  0  0  0  0
   14.4391    8.8207   17.0223 O   0  0  0  0  0  0  0  0  0  0  0  0
   12.9316    7.2440   18.1134 O   0  0  0  0  0  0  0  0  0  0  0  0
   14.1406    5.0525   16.3007 C   0  0  0  0  0  0  0  0  0  0  0  0
   14.9178    4.0461   15.7245 C   0  0  0  0  0  0  0  0  0  0  0  0
   15.8146    1.2809   15.1526 N   0  0  0  0  0  0  0  0  0  0  0  0
  1  2  1  0
  2  3  1  0
  3  4  2  0
  3  5  1  0
  5  6  1  0
  6  7  1  0
  7  8  2  0
  8  9  1  0
  9 10  1  0
  9 11  2  0
 11 12  1  0
 12 13  1  0
 13 14  1  0
 14 15  2  0
 15 16  1  0
 16 17  2  0
 17 18  1  0
 18 19  1  0
 18 20  2  0
 18 21  2  0
 17 22  1  0
 22 23  2  0
 12 24  2  0
 24  7  1  0
 23 14  1  0
M  END
>  <shape_align_shape_tanimoto>  (1) 
0.58620774044645174

>  <shape_align_color_tanimoto>  (1) 
0.047198937500522946

>  <metric>  (1) 
shape

>  <metric_score>  (1) 
0.586

>  <template_pid>  (1) 
3MNA

>  <template_shape_score>  (1) 
0.586

>  <template_color_score>  (1) 
0.047

>  <template_combo_score>  (1) 
0.317

$$$$
3MNA_color_pose
     RDKit          3D

 24 25  0  0  0  0  0  0  0  0999 V2000
   17.4957   -0.9544   18.9170 C   0  0  0  0  0  0  0  0  0  0  0  0
   16.3009   -0.3650   18.4379 O   0  0  0  0  0  0  0  0  0  0  0  0
   15.1083   -1.0549   18.4689 C   0  0  0  0  0  0  0  0  0  0  0  0
   15.0943   -2.2334   18.9353 O   0  0  0  0  0  0  0  0  0  0  0  0
   13.8167   -0.5055   17.9860 C   0  0  0  0  0  0  0  0  0  0  0  0
   14.0677    0.8271   17.5066 N   0  0  0  0  0  0  0  0  0  0  0  0
   14.9863    1.0453   16.4403 C   0  0  0  0  0  0  0  0  0  0  0  0
   15.6353   -0.0104   15.8655 N   0  0  0  0  0  0  0  0  0  0  0  0
   16.5131    0.2140   14.8443 C   0  0  0  0  0  0  0  0  0  0  0  0
   17.3553   -1.1296   14.0943 Cl  0  0  0  0  0  0  0  0  0  0  0  0
   16.7435    1.4615   14.4009 N   0  0  0  0  0  0  0  0  0  0  0  0
   16.1082    2.5442   14.9563 C   0  0  0  0  0  0  0  0  0  0  0  0
   16.3806    3.8333   14.4594 N   0  0  0  0  0  0  0  0  0  0  0  0
   15.8279    5.0499   14.9022 C   0  0  0  0  0  0  0  0  0  0  0  0
   14.9117    5.1943   15.9121 C   0  0  0  0  0  0  0  0  0  0  0  0
   14.4012    6.4301   16.3045 C   0  0  0  0  0  0  0  0  0  0  0  0
   14.8205    7.5735   15.6641 C   0  0  0  0  0  0  0  0  0  0  0  0
   14.1763    9.1199   16.1612 S   0  0  0  0  0  0  0  0  0  0  0  0
   15.1782    9.7902   17.4049 N   0  0  0  0  0  0  0  0  0  0  0  0
   12.7583    8.9958   16.6438 O   0  0  0  0  0  0  0  0  0  0  0  0
   14.1668   10.0061   14.9541 O   0  0  0  0  0  0  0  0  0  0  0  0
   15.7384    7.4663   14.6467 C   0  0  0  0  0  0  0  0  0  0  0  0
   16.2286    6.2383   14.2760 C   0  0  0  0  0  0  0  0  0  0  0  0
   15.2640    2.2466   15.9505 N   0  0  0  0  0  0  0  0  0  0  0  0
  1  2  1  0
  2  3  1  0
  3  4  2  0
  3  5  1  0
  5  6  1  0
  6  7  1  0
  7  8  2  0
  8  9  1  0
  9 10  1  0
  9 11  2  0
 11 12  1  0
 12 13  1  0
 13 14  1  0
 14 15  2  0
 15 16  1  0
 16 17  2  0
 17 18  1  0
 18 19  1  0
 18 20  2  0
 18 21  2  0
 17 22  1  0
 22 23  2  0
 12 24  2  0
 24  7  1  0
 23 14  1  0
M  END
>  <shape_align_shape_tanimoto>  (2) 
0.48065321354220963

>  <shape_align_color_tanimoto>  (2) 
0.16437823414019997

>  <metric>  (2) 
color

>  <metric_score>  (2) 
0.164

>  <template_pid>  (2) 
3MNA

>  <template_shape_score>  (2) 
0.481

>  <template_color_score>  (2) 
0.164

>  <template_combo_score>  (2) 
0.323

$$$$
3MNA_combo_pose
     RDKit          3D

 24 25  0  0  0  0  0  0  0  0999 V2000
   17.4646   -1.8267   18.4957 C   0  0  0  0  0  0  0  0  0  0  0  0
   16.3921   -0.9648   18.1407 O   0  0  0  0  0  0  0  0  0  0  0  0
   15.9604    0.0769   18.8977 C   0  0  0  0  0  0  0  0  0  0  0  0
   16.5627    0.3036   20.0114 O   0  0  0  0  0  0  0  0  0  0  0  0
   14.8522    1.0044   18.5865 C   0  0  0  0  0  0  0  0  0  0  0  0
   14.3151    0.5962   17.2782 N   0  0  0  0  0  0  0  0  0  0  0  0
   15.2186    0.7085   16.1886 C   0  0  0  0  0  0  0  0  0  0  0  0
   15.8502   -0.2754   15.5804 N   0  0  0  0  0  0  0  0  0  0  0  0
   16.7021    0.0159   14.5531 C   0  0  0  0  0  0  0  0  0  0  0  0
   17.5688   -1.2496   13.7099 Cl  0  0  0  0  0  0  0  0  0  0  0  0
   16.9170    1.2793   14.1438 N   0  0  0  0  0  0  0  0  0  0  0  0
   16.2764    2.3096   14.7580 C   0  0  0  0  0  0  0  0  0  0  0  0
   16.4902    3.6535   14.3635 N   0  0  0  0  0  0  0  0  0  0  0  0
   15.8603    4.7918   14.9136 C   0  0  0  0  0  0  0  0  0  0  0  0
   14.7948    4.7552   15.7845 C   0  0  0  0  0  0  0  0  0  0  0  0
   14.2543    5.9425   16.2884 C   0  0  0  0  0  0  0  0  0  0  0  0
   14.7489    7.1797   15.9473 C   0  0  0  0  0  0  0  0  0  0  0  0
   14.0123    8.5950   16.6118 S   0  0  0  0  0  0  0  0  0  0  0  0
   14.7289    9.0092   18.1381 N   0  0  0  0  0  0  0  0  0  0  0  0
   12.5504    8.4318   16.8598 O   0  0  0  0  0  0  0  0  0  0  0  0
   14.2418    9.7195   15.6536 O   0  0  0  0  0  0  0  0  0  0  0  0
   15.8174    7.2172   15.0747 C   0  0  0  0  0  0  0  0  0  0  0  0
   16.3382    6.0469   14.5873 C   0  0  0  0  0  0  0  0  0  0  0  0
   15.4546    1.9680   15.7556 N   0  0  0  0  0  0  0  0  0  0  0  0
  1  2  1  0
  2  3  1  0
  3  4  2  0
  3  5  1  0
  5  6  1  0
  6  7  1  0
  7  8  2  0
  8  9  1  0
  9 10  1  0
  9 11  2  0
 11 12  1  0
 12 13  1  0
 13 14  1  0
 14 15  2  0
 15 16  1  0
 16 17  2  0
 17 18  1  0
 18 19  1  0
 18 20  2  0
 18 21  2  0
 17 22  1  0
 22 23  2  0
 12 24  2  0
 24  7  1  0
 23 14  1  0
M  END
>  <shape_align_shape_tanimoto>  (3) 
0.51852133408899392

>  <shape_align_color_tanimoto>  (3) 
0.14934615946325791

>  <metric>  (3) 
combo

>  <metric_score>  (3) 
0.334

>  <template_pid>  (3) 
3MNA

>  <template_shape_score>  (3) 
0.519

>  <template_color_score>  (3) 
0.149

>  <template_combo_score>  (3) 
0.334

$$$$
