5Y5T_shape_pose
     RDKit          3D

 30 33  0  0  0  0  0  0  0  0999 V2000
   -8.2437    8.1732   44.0668 C   0  0  0  0  0  0  0  0  0  0  0  0
   -9.6163    7.6193   45.0622 S   0  0  0  0  0  0  0  0  0  0  0  0
  -10.5578    8.7760   45.2774 O   0  0  0  0  0  0  0  0  0  0  0  0
  -10.3045    6.4837   44.4050 O   0  0  0  0  0  0  0  0  0  0  0  0
   -9.0011    7.1052   46.6103 C   0  0  0  0  0  0  0  0  0  0  0  0
   -8.5762    5.8369   46.8890 C   0  0  0  0  0  0  0  0  0  0  0  0
   -8.0871    5.4458   48.1305 C   0  0  0  0  0  0  0  0  0  0  0  0
   -8.0256    6.3916   49.1459 C   0  0  0  0  0  0  0  0  0  0  0  0
   -7.5266    6.0725   50.4486 N   0  0  0  0  0  0  0  0  0  0  0  0
   -8.1867    6.4878   51.6465 C   0  0  0  0  0  0  0  0  0  0  0  0
   -8.5519    7.7544   51.9008 N   0  0  0  0  0  0  0  0  0  0  0  0
   -9.1843    8.1627   53.0119 C   0  0  0  0  0  0  0  0  0  0  0  0
   -9.5580    9.5140   53.2623 N   0  0  0  0  0  0  0  0  0  0  0  0
   -9.2688   10.5395   52.2863 C   0  0  1  0  0  0  0  0  0  0  0  0
  -10.0243   10.2817   51.0100 C   0  0  0  0  0  0  0  0  0  0  0  0
  -11.2958   11.0716   50.9423 C   0  0  0  0  0  0  0  0  0  0  0  0
  -10.9662   12.5343   50.9253 C   0  0  0  0  0  0  0  0  0  0  0  0
   -9.6984   12.8752   51.6328 C   0  0  0  0  0  0  0  0  0  0  0  0
   -9.3606   11.9383   52.7854 C   0  0  2  0  0  0  0  0  0  0  0  0
   -8.0151   12.3782   53.1994 N   0  0  0  0  0  0  0  0  0  0  0  0
   -9.4645    7.1971   53.9351 N   0  0  0  0  0  0  0  0  0  0  0  0
   -9.1462    5.9083   53.7842 C   0  0  0  0  0  0  0  0  0  0  0  0
   -8.4999    5.5438   52.6286 C   0  0  0  0  0  0  0  0  0  0  0  0
   -8.1390    4.1317   52.4406 C   0  0  0  0  0  0  0  0  0  0  0  0
   -7.5555    3.6952   51.4402 O   0  0  0  0  0  0  0  0  0  0  0  0
   -8.4888    3.2446   53.4766 N   0  0  0  0  0  0  0  0  0  0  0  0
   -9.0901    3.6061   54.5422 C   0  0  0  0  0  0  0  0  0  0  0  0
   -9.5174    4.9786   54.8764 C   0  0  0  0  0  0  0  0  0  0  0  0
   -8.4555    7.6580   48.8462 C   0  0  0  0  0  0  0  0  0  0  0  0
   -8.9402    8.0552   47.6230 C   0  0  0  0  0  0  0  0  0  0  0  0
  1  2  1  0
  2  3  2  0
  2  4  2  0
  2  5  1  0
  5  6  2  0
  6  7  1  0
  7  8  2  0
  8  9  1  0
  9 10  1  0
 10 11  2  0
 11 12  1  0
 12 13  1  0
 14 13  1  1
 14 15  1  0
 15 16  1  0
 16 17  1  0
 17 18  1  0
 18 19  1  0
 19 20  1  6
 12 21  2  0
 21 22  1  0
 22 23  2  0
 23 24  1  0
 24 25  2  0
 24 26  1  0
 26 27  2  0
 27 28  1  0
  8 29  1  0
 29 30  2  0
 30  5  1  0
 23 10  1  0
 19 14  1  0
 28 22  1  0
M  CHG  1  20   1
M  END
>  <shape_align_shape_tanimoto>  (1) 
0.68378154514023093

>  <shape_align_color_tanimoto>  (1) 
0.11746560333157249

>  <metric>  (1) 
shape

>  <metric_score>  (1) 
0.684

>  <template_pid>  (1) 
5Y5T

>  <template_shape_score>  (1) 
0.684

>  <template_color_score>  (1) 
0.117

>  <template_combo_score>  (1) 
0.401

$$$$
5Y5T_color_pose
     RDKit          3D

 30 33  0  0  0  0  0  0  0  0999 V2000
   -8.7137    5.8336   58.3354 C   0  0  0  0  0  0  0  0  0  0  0  0
   -9.5130    4.5355   57.4279 S   0  0  0  0  0  0  0  0  0  0  0  0
   -9.0557    3.2187   58.0446 O   0  0  0  0  0  0  0  0  0  0  0  0
  -10.9913    4.6358   57.6596 O   0  0  0  0  0  0  0  0  0  0  0  0
   -9.0959    4.5636   55.7467 C   0  0  0  0  0  0  0  0  0  0  0  0
   -9.8434    5.4079   54.9206 C   0  0  0  0  0  0  0  0  0  0  0  0
   -9.6072    5.5134   53.5674 C   0  0  0  0  0  0  0  0  0  0  0  0
   -8.6037    4.7656   53.0033 C   0  0  0  0  0  0  0  0  0  0  0  0
   -8.2778    4.8399   51.5982 N   0  0  0  0  0  0  0  0  0  0  0  0
   -8.3886    6.0812   50.9560 C   0  0  0  0  0  0  0  0  0  0  0  0
   -8.6326    7.1793   51.7209 N   0  0  0  0  0  0  0  0  0  0  0  0
   -8.7550    8.4147   51.2128 C   0  0  0  0  0  0  0  0  0  0  0  0
   -9.0017    9.4704   52.1322 N   0  0  0  0  0  0  0  0  0  0  0  0
   -9.1591   10.8349   51.6543 C   0  0  1  0  0  0  0  0  0  0  0  0
  -10.3701   10.8794   50.7631 C   0  0  0  0  0  0  0  0  0  0  0  0
  -11.6427   11.1485   51.5626 C   0  0  0  0  0  0  0  0  0  0  0  0
  -11.5770   12.4860   52.2482 C   0  0  0  0  0  0  0  0  0  0  0  0
  -10.1369   12.9469   52.3033 C   0  0  0  0  0  0  0  0  0  0  0  0
   -9.2413   11.8288   52.7628 C   0  0  2  0  0  0  0  0  0  0  0  0
   -7.9147   12.3313   53.0719 N   0  0  0  0  0  0  0  0  0  0  0  0
   -8.6325    8.5781   49.8946 N   0  0  0  0  0  0  0  0  0  0  0  0
   -8.3898    7.5556   49.0441 C   0  0  0  0  0  0  0  0  0  0  0  0
   -8.2716    6.3057   49.6078 C   0  0  0  0  0  0  0  0  0  0  0  0
   -8.0166    5.1830   48.7220 C   0  0  0  0  0  0  0  0  0  0  0  0
   -7.8912    4.0041   49.0996 O   0  0  0  0  0  0  0  0  0  0  0  0
   -7.9052    5.4522   47.3360 N   0  0  0  0  0  0  0  0  0  0  0  0
   -8.0123    6.6203   46.8035 C   0  0  0  0  0  0  0  0  0  0  0  0
   -8.2681    7.8301   47.5936 C   0  0  0  0  0  0  0  0  0  0  0  0
   -7.8544    3.9190   53.8267 C   0  0  0  0  0  0  0  0  0  0  0  0
   -8.0930    3.8166   55.1776 C   0  0  0  0  0  0  0  0  0  0  0  0
  1  2  1  0
  2  3  2  0
  2  4  2  0
  2  5  1  0
  5  6  2  0
  6  7  1  0
  7  8  2  0
  8  9  1  0
  9 10  1  0
 10 11  2  0
 11 12  1  0
 12 13  1  0
 14 13  1  1
 14 15  1  0
 15 16  1  0
 16 17  1  0
 17 18  1  0
 18 19  1  0
 19 20  1  6
 12 21  2  0
 21 22  1  0
 22 23  2  0
 23 24  1  0
 24 25  2  0
 24 26  1  0
 26 27  2  0
 27 28  1  0
  8 29  1  0
 29 30  2  0
 30  5  1  0
 23 10  1  0
 19 14  1  0
 28 22  1  0
M  CHG  1  20   1
M  END
>  <shape_align_shape_tanimoto>  (2) 
0.66517578468272076

>  <shape_align_color_tanimoto>  (2) 
0.14346610465699808

>  <metric>  (2) 
color

>  <metric_score>  (2) 
0.143

>  <template_pid>  (2) 
5Y5T

>  <template_shape_score>  (2) 
0.665

>  <template_color_score>  (2) 
0.143

>  <template_combo_score>  (2) 
0.404

$$$$
5Y5T_combo_pose
     RDKit          3D

 30 33  0  0  0  0  0  0  0  0999 V2000
   -8.7137    5.8336   58.3354 C   0  0  0  0  0  0  0  0  0  0  0  0
   -9.5130    4.5355   57.4279 S   0  0  0  0  0  0  0  0  0  0  0  0
   -9.0557    3.2187   58.0446 O   0  0  0  0  0  0  0  0  0  0  0  0
  -10.9913    4.6358   57.6596 O   0  0  0  0  0  0  0  0  0  0  0  0
   -9.0959    4.5636   55.7467 C   0  0  0  0  0  0  0  0  0  0  0  0
   -9.8434    5.4079   54.9206 C   0  0  0  0  0  0  0  0  0  0  0  0
   -9.6072    5.5134   53.5674 C   0  0  0  0  0  0  0  0  0  0  0  0
   -8.6037    4.7656   53.0033 C   0  0  0  0  0  0  0  0  0  0  0  0
   -8.2778    4.8399   51.5982 N   0  0  0  0  0  0  0  0  0  0  0  0
   -8.3886    6.0812   50.9560 C   0  0  0  0  0  0  0  0  0  0  0  0
   -8.6326    7.1793   51.7209 N   0  0  0  0  0  0  0  0  0  0  0  0
   -8.7550    8.4147   51.2128 C   0  0  0  0  0  0  0  0  0  0  0  0
   -9.0017    9.4704   52.1322 N   0  0  0  0  0  0  0  0  0  0  0  0
   -9.1591   10.8349   51.6543 C   0  0  1  0  0  0  0  0  0  0  0  0
  -10.3701   10.8794   50.7631 C   0  0  0  0  0  0  0  0  0  0  0  0
  -11.6427   11.1485   51.5626 C   0  0  0  0  0  0  0  0  0  0  0  0
  -11.5770   12.4860   52.2482 C   0  0  0  0  0  0  0  0  0  0  0  0
  -10.1369   12.9469   52.3033 C   0  0  0  0  0  0  0  0  0  0  0  0
   -9.2413   11.8288   52.7628 C   0  0  2  0  0  0  0  0  0  0  0  0
   -7.9147   12.3313   53.0719 N   0  0  0  0  0  0  0  0  0  0  0  0
   -8.6325    8.5781   49.8946 N   0  0  0  0  0  0  0  0  0  0  0  0
   -8.3898    7.5556   49.0441 C   0  0  0  0  0  0  0  0  0  0  0  0
   -8.2716    6.3057   49.6078 C   0  0  0  0  0  0  0  0  0  0  0  0
   -8.0166    5.1830   48.7220 C   0  0  0  0  0  0  0  0  0  0  0  0
   -7.8912    4.0041   49.0996 O   0  0  0  0  0  0  0  0  0  0  0  0
   -7.9052    5.4522   47.3360 N   0  0  0  0  0  0  0  0  0  0  0  0
   -8.0123    6.6203   46.8035 C   0  0  0  0  0  0  0  0  0  0  0  0
   -8.2681    7.8301   47.5936 C   0  0  0  0  0  0  0  0  0  0  0  0
   -7.8544    3.9190   53.8267 C   0  0  0  0  0  0  0  0  0  0  0  0
   -8.0930    3.8166   55.1776 C   0  0  0  0  0  0  0  0  0  0  0  0
  1  2  1  0
  2  3  2  0
  2  4  2  0
  2  5  1  0
  5  6  2  0
  6  7  1  0
  7  8  2  0
  8  9  1  0
  9 10  1  0
 10 11  2  0
 11 12  1  0
 12 13  1  0
 14 13  1  1
 14 15  1  0
 15 16  1  0
 16 17  1  0
 17 18  1  0
 18 19  1  0
 19 20  1  6
 12 21  2  0
 21 22  1  0
 22 23  2  0
 23 24  1  0
 24 25  2  0
 24 26  1  0
 26 27  2  0
 27 28  1  0
  8 29  1  0
 29 30  2  0
 30  5  1  0
 23 10  1  0
 19 14  1  0
 28 22  1  0
M  CHG  1  20   1
M  END
>  <shape_align_shape_tanimoto>  (3) 
0.66517578468272076

>  <shape_align_color_tanimoto>  (3) 
0.14346610465699808

>  <metric>  (3) 
combo

>  <metric_score>  (3) 
0.404

>  <template_pid>  (3) 
5Y5T

>  <template_shape_score>  (3) 
0.665

>  <template_color_score>  (3) 
0.143

>  <template_combo_score>  (3) 
0.404

$$$$
