2I0A_shape_pose
     RDKit          3D

 45 48  0  0  0  0  0  0  0  0999 V2000
    7.4832    3.1203   10.9636 C   0  0  0  0  0  0  0  0  0  0  0  0
    7.7509    2.8712   12.3155 O   0  0  0  0  0  0  0  0  0  0  0  0
    8.2823    1.6908   12.8149 C   0  0  0  0  0  0  0  0  0  0  0  0
    8.4780    1.6307   14.1887 C   0  0  0  0  0  0  0  0  0  0  0  0
    9.0014    0.4759   14.6962 C   0  0  0  0  0  0  0  0  0  0  0  0
    9.3424   -0.6252   13.9175 C   0  0  0  0  0  0  0  0  0  0  0  0
   10.0361   -1.9890   14.7002 S   0  0  0  0  0  0  0  0  0  0  0  0
   10.8860   -1.4886   15.8581 O   0  0  0  0  0  0  0  0  0  0  0  0
   10.9708   -2.7375   13.7909 O   0  0  0  0  0  0  0  0  0  0  0  0
    8.8941   -3.0718   15.3514 N   0  0  0  0  0  0  0  0  0  0  0  0
    8.8810   -4.3210   14.6546 C   0  0  0  0  0  0  0  0  0  0  0  0
    9.8985   -5.3089   15.1730 C   0  0  0  0  0  0  0  0  0  0  0  0
    9.7547   -6.5856   14.3373 C   0  0  0  0  0  0  0  0  0  0  0  0
    9.5706   -5.6544   16.5912 C   0  0  0  0  0  0  0  0  0  0  0  0
    7.7456   -2.5364   15.8874 C   0  0  0  0  0  0  0  0  0  0  0  0
    6.3903   -3.2222   15.6434 C   0  0  1  0  0  0  0  0  0  0  0  0
    6.6200   -4.4520   16.3368 O   0  0  0  0  0  0  0  0  0  0  0  0
    5.2866   -2.4232   16.2966 C   0  0  2  0  0  0  0  0  0  0  0  0
    4.2203   -3.1344   17.0073 C   0  0  0  0  0  0  0  0  0  0  0  0
    3.3600   -4.0643   16.3125 C   0  0  0  0  0  0  0  0  0  0  0  0
    2.2775   -3.5173   15.5912 C   0  0  0  0  0  0  0  0  0  0  0  0
    1.3833   -4.3277   14.9237 C   0  0  0  0  0  0  0  0  0  0  0  0
    1.4947   -5.6908   14.9244 C   0  0  0  0  0  0  0  0  0  0  0  0
    2.5445   -6.2475   15.6235 C   0  0  0  0  0  0  0  0  0  0  0  0
    3.4325   -5.4344   16.2867 C   0  0  0  0  0  0  0  0  0  0  0  0
    4.8349   -1.2724   15.5539 N   0  0  0  0  0  0  0  0  0  0  0  0
    5.2812   -0.7650   14.3380 C   0  0  0  0  0  0  0  0  0  0  0  0
    6.1903   -1.2335   13.6140 O   0  0  0  0  0  0  0  0  0  0  0  0
    4.6178    0.4747   13.8120 C   0  0  2  0  0  0  0  0  0  0  0  0
    3.1557    0.2449   13.5536 C   0  0  0  0  0  0  0  0  0  0  0  0
    2.9543    0.8430   12.2331 N   0  0  0  0  0  0  0  0  0  0  0  0
    1.7459    1.3911   11.7142 C   0  0  0  0  0  0  0  0  0  0  0  0
    0.8181    0.6473   11.0145 C   0  0  0  0  0  0  0  0  0  0  0  0
   -0.3447    1.2420   10.5327 C   0  0  0  0  0  0  0  0  0  0  0  0
   -0.5829    2.5866   10.7507 C   0  0  0  0  0  0  0  0  0  0  0  0
   -1.8054    3.2236   10.2484 C   0  0  0  0  0  0  0  0  0  0  0  0
   -2.0032    4.6725   10.5172 C   0  0  0  0  0  0  0  0  0  0  0  0
   -2.6286    2.5155    9.6143 O   0  0  0  0  0  0  0  0  0  0  0  0
    0.3635    3.3056   11.4539 C   0  0  0  0  0  0  0  0  0  0  0  0
    1.5258    2.7475   11.9448 C   0  0  0  0  0  0  0  0  0  0  0  0
    4.2357    0.7506   11.5916 C   0  0  0  0  0  0  0  0  0  0  0  0
    4.3748    0.6803   10.3318 O   0  0  0  0  0  0  0  0  0  0  0  0
    5.2134    0.7542   12.5631 O   0  0  0  0  0  0  0  0  0  0  0  0
    9.1444   -0.5653   12.5353 C   0  0  0  0  0  0  0  0  0  0  0  0
    8.6148    0.6092   12.0360 C   0  0  0  0  0  0  0  0  0  0  0  0
  1  2  1  0
  2  3  1  0
  3  4  2  0
  4  5  1  0
  5  6  2  0
  6  7  1  0
  7  8  2  0
  7  9  2  0
  7 10  1  0
 10 11  1  0
 11 12  1  0
 12 13  1  0
 12 14  1  0
 10 15  1  0
 15 16  1  0
 16 17  1  1
 16 18  1  0
 18 19  1  6
 19 20  1  0
 20 21  2  0
 21 22  1  0
 22 23  2  0
 23 24  1  0
 24 25  2  0
 18 26  1  0
 26 27  1  0
 27 28  2  0
 29 27  1  6
 29 30  1  0
 30 31  1  0
 31 32  1  0
 32 33  2  0
 33 34  1  0
 34 35  2  0
 35 36  1  0
 36 37  1  0
 36 38  2  0
 35 39  1  0
 39 40  2  0
 31 41  1  0
 41 42  2  0
 41 43  1  0
  6 44  1  0
 44 45  2  0
 45  3  1  0
 25 20  1  0
 43 29  1  0
 40 32  1  0
M  END
>  <shape_align_shape_tanimoto>  (1) 
0.56600667051297804

>  <shape_align_color_tanimoto>  (1) 
0.041563719796544579

>  <metric>  (1) 
shape

>  <metric_score>  (1) 
0.566

>  <template_pid>  (1) 
2I0A

>  <template_shape_score>  (1) 
0.566

>  <template_color_score>  (1) 
0.042

>  <template_combo_score>  (1) 
0.304

$$$$
2I0A_color_pose
     RDKit          3D

 45 48  0  0  0  0  0  0  0  0999 V2000
    1.1106   -7.5738   13.2684 C   0  0  0  0  0  0  0  0  0  0  0  0
    1.9729   -7.6992   14.3836 O   0  0  0  0  0  0  0  0  0  0  0  0
    2.4700   -6.6092   15.0732 C   0  0  0  0  0  0  0  0  0  0  0  0
    3.3211   -6.7216   16.1632 C   0  0  0  0  0  0  0  0  0  0  0  0
    3.7571   -5.5446   16.7760 C   0  0  0  0  0  0  0  0  0  0  0  0
    3.3724   -4.2980   16.3372 C   0  0  0  0  0  0  0  0  0  0  0  0
    3.9233   -2.8274   17.0914 S   0  0  0  0  0  0  0  0  0  0  0  0
    2.7262   -1.8750   17.0382 O   0  0  0  0  0  0  0  0  0  0  0  0
    4.2018   -3.1425   18.5446 O   0  0  0  0  0  0  0  0  0  0  0  0
    5.2219   -2.0521   16.3356 N   0  0  0  0  0  0  0  0  0  0  0  0
    6.3965   -2.8169   16.2765 C   0  0  0  0  0  0  0  0  0  0  0  0
    6.8524   -3.3614   14.9731 C   0  0  0  0  0  0  0  0  0  0  0  0
    5.9067   -4.2800   14.2563 C   0  0  0  0  0  0  0  0  0  0  0  0
    8.1194   -4.1937   15.2784 C   0  0  0  0  0  0  0  0  0  0  0  0
    4.8906   -1.2836   15.1916 C   0  0  0  0  0  0  0  0  0  0  0  0
    4.7726    0.1990   15.4721 C   0  0  1  0  0  0  0  0  0  0  0  0
    6.0320    0.5981   15.9090 O   0  0  0  0  0  0  0  0  0  0  0  0
    4.4021    0.9881   14.2381 C   0  0  2  0  0  0  0  0  0  0  0  0
    2.9717    0.8121   13.8386 C   0  0  0  0  0  0  0  0  0  0  0  0
    2.5524    1.5590   12.6365 C   0  0  0  0  0  0  0  0  0  0  0  0
    2.7007    0.9058   11.4069 C   0  0  0  0  0  0  0  0  0  0  0  0
    2.3290    1.5301   10.2319 C   0  0  0  0  0  0  0  0  0  0  0  0
    1.8065    2.8162   10.2951 C   0  0  0  0  0  0  0  0  0  0  0  0
    1.6610    3.4582   11.5057 C   0  0  0  0  0  0  0  0  0  0  0  0
    2.0296    2.8380   12.6682 C   0  0  0  0  0  0  0  0  0  0  0  0
    5.3312    0.7037   13.1803 N   0  0  0  0  0  0  0  0  0  0  0  0
    6.3738    1.5599   12.7338 C   0  0  0  0  0  0  0  0  0  0  0  0
    6.5061    2.6684   13.3154 O   0  0  0  0  0  0  0  0  0  0  0  0
    7.2046    1.0757   11.6350 C   0  0  2  0  0  0  0  0  0  0  0  0
    7.9578   -0.2229   11.9917 C   0  0  0  0  0  0  0  0  0  0  0  0
    8.6567   -0.3624   10.6994 N   0  0  0  0  0  0  0  0  0  0  0  0
    8.8653   -1.5440    9.9545 C   0  0  0  0  0  0  0  0  0  0  0  0
    9.4979   -1.5802    8.7509 C   0  0  0  0  0  0  0  0  0  0  0  0
    9.6475   -2.8002    8.0820 C   0  0  0  0  0  0  0  0  0  0  0  0
    9.1828   -3.9837    8.5820 C   0  0  0  0  0  0  0  0  0  0  0  0
    9.3080   -5.2708    7.9255 C   0  0  0  0  0  0  0  0  0  0  0  0
    9.9668   -5.4509    6.6069 C   0  0  0  0  0  0  0  0  0  0  0  0
    8.8433   -6.3314    8.4698 O   0  0  0  0  0  0  0  0  0  0  0  0
    8.5385   -3.9367    9.8115 C   0  0  0  0  0  0  0  0  0  0  0  0
    8.3901   -2.7297   10.4743 C   0  0  0  0  0  0  0  0  0  0  0  0
    9.0426    0.9934   10.4040 C   0  0  0  0  0  0  0  0  0  0  0  0
    9.9140    1.3119    9.5616 O   0  0  0  0  0  0  0  0  0  0  0  0
    8.2713    1.8602   11.2233 O   0  0  0  0  0  0  0  0  0  0  0  0
    2.5214   -4.2080   15.2481 C   0  0  0  0  0  0  0  0  0  0  0  0
    2.0650   -5.3486   14.6096 C   0  0  0  0  0  0  0  0  0  0  0  0
  1  2  1  0
  2  3  1  0
  3  4  2  0
  4  5  1  0
  5  6  2  0
  6  7  1  0
  7  8  2  0
  7  9  2  0
  7 10  1  0
 10 11  1  0
 11 12  1  0
 12 13  1  0
 12 14  1  0
 10 15  1  0
 15 16  1  0
 16 17  1  6
 16 18  1  0
 18 19  1  6
 19 20  1  0
 20 21  2  0
 21 22  1  0
 22 23  2  0
 23 24  1  0
 24 25  2  0
 18 26  1  0
 26 27  1  0
 27 28  2  0
 29 27  1  1
 29 30  1  0
 30 31  1  0
 31 32  1  0
 32 33  2  0
 33 34  1  0
 34 35  2  0
 35 36  1  0
 36 37  1  0
 36 38  2  0
 35 39  1  0
 39 40  2  0
 31 41  1  0
 41 42  2  0
 41 43  1  0
  6 44  1  0
 44 45  2  0
 45  3  1  0
 25 20  1  0
 43 29  1  0
 40 32  1  0
M  END
>  <shape_align_shape_tanimoto>  (2) 
0.46957458102576671

>  <shape_align_color_tanimoto>  (2) 
0.10429117969957175

>  <metric>  (2) 
color

>  <metric_score>  (2) 
0.104

>  <template_pid>  (2) 
2I0A

>  <template_shape_score>  (2) 
0.470

>  <template_color_score>  (2) 
0.104

>  <template_combo_score>  (2) 
0.287

$$$$
2I0A_combo_pose
     RDKit          3D

 45 48  0  0  0  0  0  0  0  0999 V2000
   -0.2170   -5.5881   12.8153 C   0  0  0  0  0  0  0  0  0  0  0  0
    0.8993   -6.2846   13.3262 O   0  0  0  0  0  0  0  0  0  0  0  0
    1.7845   -5.6706   14.1898 C   0  0  0  0  0  0  0  0  0  0  0  0
    2.8693   -6.3541   14.6839 C   0  0  0  0  0  0  0  0  0  0  0  0
    3.7371   -5.7195   15.5433 C   0  0  0  0  0  0  0  0  0  0  0  0
    3.6012   -4.4252   15.9568 C   0  0  0  0  0  0  0  0  0  0  0  0
    4.6578   -3.5739   17.0194 S   0  0  0  0  0  0  0  0  0  0  0  0
    3.7728   -2.7394   17.9565 O   0  0  0  0  0  0  0  0  0  0  0  0
    5.2815   -4.5960   17.9475 O   0  0  0  0  0  0  0  0  0  0  0  0
    5.8127   -2.5704   16.2505 N   0  0  0  0  0  0  0  0  0  0  0  0
    7.1305   -3.0808   16.4459 C   0  0  0  0  0  0  0  0  0  0  0  0
    7.7864   -3.7568   15.2983 C   0  0  0  0  0  0  0  0  0  0  0  0
    9.1774   -4.1900   15.7973 C   0  0  0  0  0  0  0  0  0  0  0  0
    7.0789   -5.0433   14.9689 C   0  0  0  0  0  0  0  0  0  0  0  0
    5.7615   -1.1990   16.7033 C   0  0  0  0  0  0  0  0  0  0  0  0
    4.8283   -0.3091   15.9664 C   0  0  1  0  0  0  0  0  0  0  0  0
    4.9344    0.9662   16.5344 O   0  0  0  0  0  0  0  0  0  0  0  0
    5.1716   -0.1579   14.4852 C   0  0  2  0  0  0  0  0  0  0  0  0
    6.5881    0.3291   14.4081 C   0  0  0  0  0  0  0  0  0  0  0  0
    7.0769    0.5334   13.0188 C   0  0  0  0  0  0  0  0  0  0  0  0
    7.6713   -0.4573   12.2716 C   0  0  0  0  0  0  0  0  0  0  0  0
    8.1070   -0.1701   10.9730 C   0  0  0  0  0  0  0  0  0  0  0  0
    7.9488    1.0878   10.4350 C   0  0  0  0  0  0  0  0  0  0  0  0
    7.3562    2.0841   11.1728 C   0  0  0  0  0  0  0  0  0  0  0  0
    6.9396    1.7734   12.4407 C   0  0  0  0  0  0  0  0  0  0  0  0
    4.2669    0.7669   13.8520 N   0  0  0  0  0  0  0  0  0  0  0  0
    3.3278    0.4216   12.8692 C   0  0  0  0  0  0  0  0  0  0  0  0
    3.2769   -0.8047   12.5209 O   0  0  0  0  0  0  0  0  0  0  0  0
    2.3965    1.3569   12.2068 C   0  0  2  0  0  0  0  0  0  0  0  0
    2.6280    1.2480   10.7184 C   0  0  0  0  0  0  0  0  0  0  0  0
    3.4028    2.4416   10.4522 N   0  0  0  0  0  0  0  0  0  0  0  0
    4.2545    2.5749    9.3194 C   0  0  0  0  0  0  0  0  0  0  0  0
    4.3968    1.5331    8.3906 C   0  0  0  0  0  0  0  0  0  0  0  0
    5.2039    1.6275    7.2928 C   0  0  0  0  0  0  0  0  0  0  0  0
    5.9210    2.7554    7.0420 C   0  0  0  0  0  0  0  0  0  0  0  0
    6.7718    2.8156    5.8604 C   0  0  0  0  0  0  0  0  0  0  0  0
    7.5935    3.9965    5.4980 C   0  0  0  0  0  0  0  0  0  0  0  0
    6.7975    1.8016    5.1204 O   0  0  0  0  0  0  0  0  0  0  0  0
    5.8146    3.8191    7.9338 C   0  0  0  0  0  0  0  0  0  0  0  0
    4.9876    3.7083    9.0491 C   0  0  0  0  0  0  0  0  0  0  0  0
    3.1305    3.3655   11.4977 C   0  0  0  0  0  0  0  0  0  0  0  0
    3.3963    4.6071   11.4472 O   0  0  0  0  0  0  0  0  0  0  0  0
    2.5291    2.6935   12.5803 O   0  0  0  0  0  0  0  0  0  0  0  0
    2.4947   -3.7303   15.4530 C   0  0  0  0  0  0  0  0  0  0  0  0
    1.6032   -4.3472   14.5835 C   0  0  0  0  0  0  0  0  0  0  0  0
  1  2  1  0
  2  3  1  0
  3  4  2  0
  4  5  1  0
  5  6  2  0
  6  7  1  0
  7  8  2  0
  7  9  2  0
  7 10  1  0
 10 11  1  0
 11 12  1  0
 12 13  1  0
 12 14  1  0
 10 15  1  0
 15 16  1  0
 16 17  1  1
 16 18  1  0
 18 19  1  1
 19 20  1  0
 20 21  2  0
 21 22  1  0
 22 23  2  0
 23 24  1  0
 24 25  2  0
 18 26  1  0
 26 27  1  0
 27 28  2  0
 29 27  1  1
 29 30  1  0
 30 31  1  0
 31 32  1  0
 32 33  2  0
 33 34  1  0
 34 35  2  0
 35 36  1  0
 36 37  1  0
 36 38  2  0
 35 39  1  0
 39 40  2  0
 31 41  1  0
 41 42  2  0
 41 43  1  0
  6 44  1  0
 44 45  2  0
 45  3  1  0
 25 20  1  0
 43 29  1  0
 40 32  1  0
M  END
>  <shape_align_shape_tanimoto>  (3) 
0.54286188322155882

>  <shape_align_color_tanimoto>  (3) 
0.090871173833171975

>  <metric>  (3) 
combo

>  <metric_score>  (3) 
0.317

>  <template_pid>  (3) 
2I0A

>  <template_shape_score>  (3) 
0.543

>  <template_color_score>  (3) 
0.091

>  <template_combo_score>  (3) 
0.317

$$$$
