1CW2_shape_pose
     RDKit          3D

 17 17  0  0  0  0  0  0  0  0999 V2000
   18.5680   17.2924   19.0368 O   0  0  0  0  0  0  0  0  0  0  0  0
   17.0806   17.4630   19.2476 S   0  0  0  0  0  4  0  0  0  0  0  0
   16.4653   19.0235   18.6258 C   0  0  0  0  0  0  0  0  0  0  0  0
   16.9882   19.1513   17.1886 C   0  0  0  0  0  0  0  0  0  0  0  0
   16.4187   17.9518   16.4413 C   0  0  0  0  0  0  0  0  0  0  0  0
   16.8611   17.9533   14.9929 C   0  0  0  0  0  0  0  0  0  0  0  0
   16.3355   19.4211   14.0939 P   0  0  0  0  0  0  0  0  0  0  0  0
   15.3082   20.2386   14.8450 O   0  0  0  0  0  0  0  0  0  0  0  0
   15.6322   19.0106   12.5893 O   0  0  0  0  0  0  0  0  0  0  0  0
   17.7182   20.3465   13.7115 O   0  0  0  0  0  0  0  0  0  0  0  0
   16.5798   17.1354   20.9010 C   0  0  0  0  0  0  0  0  0  0  0  0
   15.3743   16.4441   21.0681 C   0  0  0  0  0  0  0  0  0  0  0  0
   14.8793   16.1303   22.3077 C   0  0  0  0  0  0  0  0  0  0  0  0
   15.6210   16.5249   23.4130 C   0  0  0  0  0  0  0  0  0  0  0  0
   16.8258   17.2154   23.2611 C   0  0  0  0  0  0  0  0  0  0  0  0
   17.3194   17.5289   22.0003 C   0  0  0  0  0  0  0  0  0  0  0  0
   18.5060   18.2101   21.8067 O   0  0  0  0  0  0  0  0  0  0  0  0
  1  2  2  0
  2  3  1  1
  3  4  1  0
  4  5  1  0
  5  6  1  0
  6  7  1  0
  7  8  2  0
  7  9  1  0
  7 10  1  0
  2 11  1  0
 11 12  2  0
 12 13  1  0
 13 14  2  0
 14 15  1  0
 15 16  2  0
 16 17  1  0
 16 11  1  0
M  END
>  <shape_align_shape_tanimoto>  (1) 
0.59769998356767595

>  <shape_align_color_tanimoto>  (1) 
0.020352166838605214

>  <metric>  (1) 
shape

>  <metric_score>  (1) 
0.598

>  <template_pid>  (1) 
1CW2

>  <template_shape_score>  (1) 
0.598

>  <template_color_score>  (1) 
0.020

>  <template_combo_score>  (1) 
0.309

$$$$
1CW2_color_pose
     RDKit          3D

 17 17  0  0  0  0  0  0  0  0999 V2000
   16.6579   18.3574   11.0275 O   0  0  0  0  0  0  0  0  0  0  0  0
   17.3914   18.7537   12.2987 S   0  0  0  0  0  4  0  0  0  0  0  0
   18.3754   17.4427   12.9230 C   0  0  0  0  0  0  0  0  0  0  0  0
   19.2915   17.7014   14.0475 C   0  0  0  0  0  0  0  0  0  0  0  0
   18.7247   18.1522   15.3388 C   0  0  0  0  0  0  0  0  0  0  0  0
   17.7267   17.1705   15.9290 C   0  0  0  0  0  0  0  0  0  0  0  0
   17.1450   17.8832   17.4915 P   0  0  0  0  0  0  0  0  0  0  0  0
   15.8726   17.2241   17.9541 O   0  0  0  0  0  0  0  0  0  0  0  0
   16.9194   19.5356   17.2291 O   0  0  0  0  0  0  0  0  0  0  0  0
   18.3950   17.6927   18.6173 O   0  0  0  0  0  0  0  0  0  0  0  0
   16.2844   19.4930   13.4044 C   0  0  0  0  0  0  0  0  0  0  0  0
   15.0912   18.8180   13.6998 C   0  0  0  0  0  0  0  0  0  0  0  0
   14.1469   19.3567   14.5499 C   0  0  0  0  0  0  0  0  0  0  0  0
   14.3452   20.5943   15.1473 C   0  0  0  0  0  0  0  0  0  0  0  0
   15.5076   21.2654   14.8673 C   0  0  0  0  0  0  0  0  0  0  0  0
   16.4349   20.7161   14.0208 C   0  0  0  0  0  0  0  0  0  0  0  0
   17.6143   21.4086   13.7435 O   0  0  0  0  0  0  0  0  0  0  0  0
  1  2  2  0
  2  3  1  1
  3  4  1  0
  4  5  1  0
  5  6  1  0
  6  7  1  0
  7  8  2  0
  7  9  1  0
  7 10  1  0
  2 11  1  0
 11 12  2  0
 12 13  1  0
 13 14  2  0
 14 15  1  0
 15 16  2  0
 16 17  1  0
 16 11  1  0
M  END
>  <shape_align_shape_tanimoto>  (2) 
0.40070047515808732

>  <shape_align_color_tanimoto>  (2) 
0.091425011871772155

>  <metric>  (2) 
color

>  <metric_score>  (2) 
0.091

>  <template_pid>  (2) 
1CW2

>  <template_shape_score>  (2) 
0.401

>  <template_color_score>  (2) 
0.091

>  <template_combo_score>  (2) 
0.246

$$$$
1CW2_combo_pose
     RDKit          3D

 17 17  0  0  0  0  0  0  0  0999 V2000
   18.0670   17.6022   17.0224 O   0  0  0  0  0  0  0  0  0  0  0  0
   16.5861   17.7057   17.4097 S   0  0  0  0  0  4  0  0  0  0  0  0
   15.8614   19.2811   17.0546 C   0  0  0  0  0  0  0  0  0  0  0  0
   15.7980   19.6759   15.6091 C   0  0  0  0  0  0  0  0  0  0  0  0
   17.1459   19.7448   15.0242 C   0  0  0  0  0  0  0  0  0  0  0  0
   17.1993   20.1569   13.5794 C   0  0  0  0  0  0  0  0  0  0  0  0
   16.3281   19.0947   12.4582 P   0  0  0  0  0  0  0  0  0  0  0  0
   14.9900   19.7236   12.0899 O   0  0  0  0  0  0  0  0  0  0  0  0
   17.2008   18.9960   11.0103 O   0  0  0  0  0  0  0  0  0  0  0  0
   16.1241   17.5196   13.0062 O   0  0  0  0  0  0  0  0  0  0  0  0
   16.5716   17.3798   19.1823 C   0  0  0  0  0  0  0  0  0  0  0  0
   15.4758   16.7315   19.7434 C   0  0  0  0  0  0  0  0  0  0  0  0
   15.4966   16.4953   21.1154 C   0  0  0  0  0  0  0  0  0  0  0  0
   16.5841   16.8996   21.8884 C   0  0  0  0  0  0  0  0  0  0  0  0
   17.6672   17.5433   21.3177 C   0  0  0  0  0  0  0  0  0  0  0  0
   17.6542   17.7791   19.9697 C   0  0  0  0  0  0  0  0  0  0  0  0
   18.7262   18.4203   19.3822 O   0  0  0  0  0  0  0  0  0  0  0  0
  1  2  2  0
  2  3  1  1
  3  4  1  0
  4  5  1  0
  5  6  1  0
  6  7  1  0
  7  8  2  0
  7  9  1  0
  7 10  1  0
  2 11  1  0
 11 12  2  0
 12 13  1  0
 13 14  2  0
 14 15  1  0
 15 16  2  0
 16 17  1  0
 16 11  1  0
M  END
>  <shape_align_shape_tanimoto>  (3) 
0.59586832203971574

>  <shape_align_color_tanimoto>  (3) 
0.024038453809312552

>  <metric>  (3) 
combo

>  <metric_score>  (3) 
0.310

>  <template_pid>  (3) 
1CW2

>  <template_shape_score>  (3) 
0.596

>  <template_color_score>  (3) 
0.024

>  <template_combo_score>  (3) 
0.310

$$$$
