1D4W_shape_pose
     RDKit          3D

 85 85  0  0  0  0  0  0  0  0999 V2000
   24.1756   23.3431   23.4553 C   0  0  0  0  0  0  0  0  0  0  0  0
   24.6111   22.0180   24.0521 C   0  0  0  0  0  0  0  0  0  0  0  0
   24.2235   20.8269   23.2572 C   0  0  2  0  0  0  0  0  0  0  0  0
   24.7686   20.9196   21.8457 C   0  0  0  0  0  0  0  0  0  0  0  0
   22.9005   20.2782   23.4502 C   0  0  2  0  0  0  0  0  0  0  0  0
   22.6825   19.1134   22.5320 N   0  0  0  0  0  0  0  0  0  0  0  0
   21.9808   17.9705   22.9043 C   0  0  0  0  0  0  0  0  0  0  0  0
   21.5202   17.9073   24.0773 O   0  0  0  0  0  0  0  0  0  0  0  0
   21.7338   16.8244   22.0099 C   0  0  1  0  0  0  0  0  0  0  0  0
   20.9372   15.8055   22.7390 N   0  0  0  0  0  0  0  0  0  0  0  0
   21.2091   14.4352   22.6336 C   0  0  0  0  0  0  0  0  0  0  0  0
   22.1646   13.9968   21.9071 O   0  0  0  0  0  0  0  0  0  0  0  0
   20.3958   13.4447   23.3557 C   0  0  2  0  0  0  0  0  0  0  0  0
   19.8072   12.4138   22.3967 C   0  0  0  0  0  0  0  0  0  0  0  0
   18.9335   12.9665   21.3393 C   0  0  0  0  0  0  0  0  0  0  0  0
   18.4593   11.7764   20.4983 C   0  0  0  0  0  0  0  0  0  0  0  0
   17.7147   13.6938   21.7711 C   0  0  0  0  0  0  0  0  0  0  0  0
   19.3951   13.9834   24.2255 N   0  0  0  0  0  0  0  0  0  0  0  0
   19.3461   13.5018   25.5751 C   0  0  0  0  0  0  0  0  0  0  0  0
   20.1758   12.6187   25.9758 O   0  0  0  0  0  0  0  0  0  0  0  0
   18.3665   13.9722   26.5682 C   0  0  1  0  0  0  0  0  0  0  0  0
   18.6152   13.1922   27.7883 N   0  0  0  0  0  0  0  0  0  0  0  0
   18.4970   15.4502   26.8799 C   0  0  0  0  0  0  0  0  0  0  0  0
   17.5829   15.8256   27.8406 O   0  0  0  0  0  0  0  0  0  0  0  0
   20.9148   17.2058   20.7659 C   0  0  1  0  0  0  0  0  0  0  0  0
   21.6379   18.1049   19.8182 C   0  0  0  0  0  0  0  0  0  0  0  0
   20.6901   16.0141   20.0215 O   0  0  0  0  0  0  0  0  0  0  0  0
   21.7611   21.1371   23.1961 C   0  0  0  0  0  0  0  0  0  0  0  0
   21.0283   20.7861   22.1826 O   0  0  0  0  0  0  0  0  0  0  0  0
   21.2941   22.2912   23.8674 N   0  0  0  0  0  0  0  0  0  0  0  0
   20.0725   22.8607   23.3251 C   0  0  1  0  0  0  0  0  0  0  0  0
   19.1482   23.2416   24.4639 C   0  0  0  0  0  0  0  0  0  0  0  0
   18.8262   22.0704   25.2888 C   0  0  0  0  0  0  0  0  0  0  0  0
   17.7963   21.1943   25.0843 C   0  0  0  0  0  0  0  0  0  0  0  0
   17.6136   20.1435   25.9728 C   0  0  0  0  0  0  0  0  0  0  0  0
   18.4137   19.9244   27.0606 C   0  0  0  0  0  0  0  0  0  0  0  0
   18.2345   18.8714   27.9548 O   0  0  0  0  0  0  0  0  0  0  0  0
   19.2393   18.7369   29.3300 P   0  0  0  0  0  0  0  0  0  0  0  0
   19.0344   19.9660   30.1932 O   0  0  0  0  0  0  0  0  0  0  0  0
   18.8102   17.3645   30.2151 O   0  0  0  0  0  0  0  0  0  0  0  0
   20.8749   18.6163   28.8630 O   0  0  0  0  0  0  0  0  0  0  0  0
   19.4572   20.8116   27.2668 C   0  0  0  0  0  0  0  0  0  0  0  0
   19.6482   21.8481   26.4025 C   0  0  0  0  0  0  0  0  0  0  0  0
   20.3348   24.1422   22.5585 C   0  0  0  0  0  0  0  0  0  0  0  0
   21.3884   24.7935   22.6714 O   0  0  0  0  0  0  0  0  0  0  0  0
   19.2891   24.5433   21.6954 N   0  0  0  0  0  0  0  0  0  0  0  0
   19.2748   25.7141   20.8719 C   0  0  1  0  0  0  0  0  0  0  0  0
   20.0990   25.4718   19.5951 C   0  0  0  0  0  0  0  0  0  0  0  0
   17.8945   26.0345   20.5236 C   0  0  0  0  0  0  0  0  0  0  0  0
   17.0010   25.2349   20.9945 O   0  0  0  0  0  0  0  0  0  0  0  0
   17.4620   27.1205   19.7254 N   0  0  0  0  0  0  0  0  0  0  0  0
   16.0451   27.3136   19.4233 C   0  0  1  0  0  0  0  0  0  0  0  0
   15.4565   28.4887   20.0605 C   0  0  0  0  0  0  0  0  0  0  0  0
   16.0208   29.8365   19.7931 C   0  0  0  0  0  0  0  0  0  0  0  0
   15.8961   30.3218   18.4266 C   0  0  0  0  0  0  0  0  0  0  0  0
   16.8568   31.2939   17.9760 N   0  0  0  0  0  0  0  0  0  0  0  0
   15.0330   29.9889   17.5864 O   0  0  0  0  0  0  0  0  0  0  0  0
   15.7438   27.0875   18.0078 C   0  0  0  0  0  0  0  0  0  0  0  0
   14.5915   27.0699   17.5039 O   0  0  0  0  0  0  0  0  0  0  0  0
   16.8741   26.8633   17.1375 N   0  0  0  0  0  0  0  0  0  0  0  0
   16.8101   26.5960   15.7489 C   0  0  2  0  0  0  0  0  0  0  0  0
   17.5385   25.3488   15.4215 C   0  0  0  0  0  0  0  0  0  0  0  0
   17.5290   25.0032   14.1932 O   0  0  0  0  0  0  0  0  0  0  0  0
   18.2292   24.5383   16.3503 N   0  0  0  0  0  0  0  0  0  0  0  0
   18.9138   23.3598   15.9463 C   0  0  1  0  0  0  0  0  0  0  0  0
   20.4331   23.5712   16.0641 C   0  0  0  0  0  0  0  0  0  0  0  0
   20.9382   24.6925   15.2243 C   0  0  0  0  0  0  0  0  0  0  0  0
   22.4297   24.7764   15.4305 C   0  0  0  0  0  0  0  0  0  0  0  0
   23.1665   25.7430   14.6992 N   0  0  0  0  0  0  0  0  0  0  0  0
   23.0293   24.0135   16.2298 O   0  0  0  0  0  0  0  0  0  0  0  0
   18.6473   22.1472   16.7485 C   0  0  0  0  0  0  0  0  0  0  0  0
   19.3244   21.1112   16.4099 O   0  0  0  0  0  0  0  0  0  0  0  0
   17.7362   22.0829   17.8084 N   0  0  0  0  0  0  0  0  0  0  0  0
   17.6332   20.7341   18.5029 C   0  0  1  0  0  0  0  0  0  0  0  0
   17.6516   21.1055   19.9258 C   0  0  0  0  0  0  0  0  0  0  0  0
   17.6529   20.1412   21.0193 C   0  0  0  0  0  0  0  0  0  0  0  0
   16.5565   19.1481   21.1684 C   0  0  0  0  0  0  0  0  0  0  0  0
   16.8919   18.3908   22.4909 C   0  0  0  0  0  0  0  0  0  0  0  0
   15.9237   17.3758   22.7653 N   0  0  0  0  0  0  0  0  0  0  0  0
   16.3374   20.2039   17.9817 C   0  0  0  0  0  0  0  0  0  0  0  0
   15.6894   21.0432   17.2549 O   0  0  0  0  0  0  0  0  0  0  0  0
   15.7806   18.9952   18.1671 O   0  0  0  0  0  0  0  0  0  0  0  0
   17.3306   27.6953   14.8370 C   0  0  0  0  0  0  0  0  0  0  0  0
   16.5634   28.9854   14.9815 C   0  0  0  0  0  0  0  0  0  0  0  0
   18.8205   27.9149   14.9944 C   0  0  0  0  0  0  0  0  0  0  0  0
  1  2  1  0
  2  3  1  0
  3  4  1  6
  3  5  1  0
  5  6  1  6
  6  7  1  0
  7  8  2  0
  7  9  1  0
  9 10  1  1
 10 11  1  0
 11 12  2  0
 11 13  1  0
 13 14  1  6
 14 15  1  0
 15 16  1  0
 15 17  1  0
 13 18  1  0
 18 19  1  0
 19 20  2  0
 19 21  1  0
 21 22  1  1
 21 23  1  0
 23 24  1  0
  9 25  1  0
 25 26  1  6
 25 27  1  0
  5 28  1  0
 28 29  2  0
 28 30  1  0
 30 31  1  0
 31 32  1  1
 32 33  1  0
 33 34  2  0
 34 35  1  0
 35 36  2  0
 36 37  1  0
 37 38  1  0
 38 39  2  0
 38 40  1  0
 38 41  1  0
 36 42  1  0
 42 43  2  0
 31 44  1  0
 44 45  2  0
 44 46  1  0
 46 47  1  0
 47 48  1  6
 47 49  1  0
 49 50  2  0
 49 51  1  0
 51 52  1  0
 52 53  1  6
 53 54  1  0
 54 55  1  0
 55 56  1  0
 55 57  2  0
 52 58  1  0
 58 59  2  0
 58 60  1  0
 61 60  1  1
 61 62  1  0
 62 63  2  0
 62 64  1  0
 64 65  1  0
 65 66  1  1
 66 67  1  0
 67 68  1  0
 68 69  1  0
 68 70  2  0
 65 71  1  0
 71 72  2  0
 71 73  1  0
 73 74  1  0
 74 75  1  1
 75 76  1  0
 76 77  1  0
 77 78  1  0
 78 79  1  0
 74 80  1  0
 80 81  2  0
 80 82  1  0
 61 83  1  0
 83 84  1  0
 83 85  1  0
 43 33  1  0
M  CHG  2  22   1  79   1
M  END
>  <shape_align_shape_tanimoto>  (1) 
0.39311734935524012

>  <shape_align_color_tanimoto>  (1) 
0.013556790599766401

>  <metric>  (1) 
shape

>  <metric_score>  (1) 
0.393

>  <template_pid>  (1) 
1D4W

>  <template_shape_score>  (1) 
0.393

>  <template_color_score>  (1) 
0.014

>  <template_combo_score>  (1) 
0.203

$$$$
1D4W_color_pose
     RDKit          3D

 85 85  0  0  0  0  0  0  0  0999 V2000
   22.1901   21.5535   28.0233 C   0  0  0  0  0  0  0  0  0  0  0  0
   21.2335   20.7883   28.8785 C   0  0  0  0  0  0  0  0  0  0  0  0
   19.8638   20.5740   28.3148 C   0  0  2  0  0  0  0  0  0  0  0  0
   19.0321   19.8214   29.3828 C   0  0  0  0  0  0  0  0  0  0  0  0
   19.8729   19.7123   27.0703 C   0  0  2  0  0  0  0  0  0  0  0  0
   20.6283   20.2368   25.9856 N   0  0  0  0  0  0  0  0  0  0  0  0
   21.8619   19.7643   25.4568 C   0  0  0  0  0  0  0  0  0  0  0  0
   22.4974   18.7910   25.9406 O   0  0  0  0  0  0  0  0  0  0  0  0
   22.4608   20.4248   24.2764 C   0  0  1  0  0  0  0  0  0  0  0  0
   21.5145   21.1539   23.5060 N   0  0  0  0  0  0  0  0  0  0  0  0
   21.5944   22.3943   22.8487 C   0  0  0  0  0  0  0  0  0  0  0  0
   22.6092   23.1193   22.8605 O   0  0  0  0  0  0  0  0  0  0  0  0
   20.3662   22.8202   22.1157 C   0  0  2  0  0  0  0  0  0  0  0  0
   20.3853   21.9519   20.8339 C   0  0  0  0  0  0  0  0  0  0  0  0
   19.2063   22.2326   19.9492 C   0  0  0  0  0  0  0  0  0  0  0  0
   19.3226   21.3486   18.7204 C   0  0  0  0  0  0  0  0  0  0  0  0
   17.8886   21.8627   20.5992 C   0  0  0  0  0  0  0  0  0  0  0  0
   20.3012   24.1899   21.7274 N   0  0  0  0  0  0  0  0  0  0  0  0
   19.2380   24.9566   22.3027 C   0  0  0  0  0  0  0  0  0  0  0  0
   18.4907   24.3291   23.1033 O   0  0  0  0  0  0  0  0  0  0  0  0
   18.9408   26.3618   22.0617 C   0  0  1  0  0  0  0  0  0  0  0  0
   17.9398   26.8536   23.0124 N   0  0  0  0  0  0  0  0  0  0  0  0
   20.0979   27.3089   22.0764 C   0  0  0  0  0  0  0  0  0  0  0  0
   19.6914   28.6154   21.7037 O   0  0  0  0  0  0  0  0  0  0  0  0
   23.7272   21.2111   24.5851 C   0  0  1  0  0  0  0  0  0  0  0  0
   24.6115   21.2441   23.3683 C   0  0  0  0  0  0  0  0  0  0  0  0
   23.5462   22.3871   25.2394 O   0  0  0  0  0  0  0  0  0  0  0  0
   18.3964   19.5836   26.6597 C   0  0  0  0  0  0  0  0  0  0  0  0
   17.5417   19.1828   27.4810 O   0  0  0  0  0  0  0  0  0  0  0  0
   17.9779   19.9149   25.3631 N   0  0  0  0  0  0  0  0  0  0  0  0
   16.7471   19.9250   24.7130 C   0  0  1  0  0  0  0  0  0  0  0  0
   15.9669   18.6347   24.9769 C   0  0  0  0  0  0  0  0  0  0  0  0
   16.7163   17.4883   24.4586 C   0  0  0  0  0  0  0  0  0  0  0  0
   17.5805   16.6875   25.1387 C   0  0  0  0  0  0  0  0  0  0  0  0
   18.2494   15.6132   24.5625 C   0  0  0  0  0  0  0  0  0  0  0  0
   18.0354   15.3309   23.2300 C   0  0  0  0  0  0  0  0  0  0  0  0
   18.6378   14.2936   22.5477 O   0  0  0  0  0  0  0  0  0  0  0  0
   20.1875   14.4564   21.8249 P   0  0  0  0  0  0  0  0  0  0  0  0
   20.4554   13.1674   21.0562 O   0  0  0  0  0  0  0  0  0  0  0  0
   20.2412   15.7131   20.7276 O   0  0  0  0  0  0  0  0  0  0  0  0
   21.4018   14.5924   23.0004 O   0  0  0  0  0  0  0  0  0  0  0  0
   17.1595   16.1282   22.5090 C   0  0  0  0  0  0  0  0  0  0  0  0
   16.5164   17.1776   23.1021 C   0  0  0  0  0  0  0  0  0  0  0  0
   15.8897   21.1100   25.0290 C   0  0  0  0  0  0  0  0  0  0  0  0
   16.0124   21.6456   26.1580 O   0  0  0  0  0  0  0  0  0  0  0  0
   15.0063   21.5520   24.0349 N   0  0  0  0  0  0  0  0  0  0  0  0
   14.0842   22.6556   24.1034 C   0  0  1  0  0  0  0  0  0  0  0  0
   14.7327   23.7615   25.0164 C   0  0  0  0  0  0  0  0  0  0  0  0
   14.0845   23.2942   22.7881 C   0  0  0  0  0  0  0  0  0  0  0  0
   14.9701   22.8366   21.9633 O   0  0  0  0  0  0  0  0  0  0  0  0
   13.2762   24.3234   22.3100 N   0  0  0  0  0  0  0  0  0  0  0  0
   13.5647   24.7889   20.9450 C   0  0  1  0  0  0  0  0  0  0  0  0
   12.5944   23.9447   20.0638 C   0  0  0  0  0  0  0  0  0  0  0  0
   12.7114   24.2632   18.6277 C   0  0  0  0  0  0  0  0  0  0  0  0
   14.0127   24.0240   17.9938 C   0  0  0  0  0  0  0  0  0  0  0  0
   14.1037   24.2927   16.5840 N   0  0  0  0  0  0  0  0  0  0  0  0
   15.0455   23.6113   18.5577 O   0  0  0  0  0  0  0  0  0  0  0  0
   13.1938   26.1868   20.7003 C   0  0  0  0  0  0  0  0  0  0  0  0
   12.1017   26.5831   21.1848 O   0  0  0  0  0  0  0  0  0  0  0  0
   14.0702   27.0302   19.9451 N   0  0  0  0  0  0  0  0  0  0  0  0
   13.8276   28.3938   19.6262 C   0  0  2  0  0  0  0  0  0  0  0  0
   14.6575   28.9226   18.5290 C   0  0  0  0  0  0  0  0  0  0  0  0
   14.3989   30.1121   18.1498 O   0  0  0  0  0  0  0  0  0  0  0  0
   15.7116   28.2668   17.8640 N   0  0  0  0  0  0  0  0  0  0  0  0
   16.4851   28.9575   16.8116 C   0  0  1  0  0  0  0  0  0  0  0  0
   17.7466   29.3897   17.5770 C   0  0  0  0  0  0  0  0  0  0  0  0
   18.7450   30.1232   16.7765 C   0  0  0  0  0  0  0  0  0  0  0  0
   18.2928   31.3854   16.1885 C   0  0  0  0  0  0  0  0  0  0  0  0
   19.2768   32.1642   15.4733 N   0  0  0  0  0  0  0  0  0  0  0  0
   17.1334   31.8545   16.2459 O   0  0  0  0  0  0  0  0  0  0  0  0
   16.8644   28.1032   15.6869 C   0  0  0  0  0  0  0  0  0  0  0  0
   17.5423   28.6568   14.7519 O   0  0  0  0  0  0  0  0  0  0  0  0
   16.5739   26.7377   15.5167 N   0  0  0  0  0  0  0  0  0  0  0  0
   17.0297   25.9714   14.3479 C   0  0  1  0  0  0  0  0  0  0  0  0
   17.9727   24.8924   14.7771 C   0  0  0  0  0  0  0  0  0  0  0  0
   18.4907   24.0678   13.6563 C   0  0  0  0  0  0  0  0  0  0  0  0
   19.4777   23.0073   14.1450 C   0  0  0  0  0  0  0  0  0  0  0  0
   20.6801   23.5755   14.8205 C   0  0  0  0  0  0  0  0  0  0  0  0
   21.5059   22.4333   15.2247 N   0  0  0  0  0  0  0  0  0  0  0  0
   15.9420   25.5282   13.4993 C   0  0  0  0  0  0  0  0  0  0  0  0
   16.0290   24.8924   12.4160 O   0  0  0  0  0  0  0  0  0  0  0  0
   14.6166   25.8176   13.8861 O   0  0  0  0  0  0  0  0  0  0  0  0
   14.2180   29.3294   20.7950 C   0  0  0  0  0  0  0  0  0  0  0  0
   13.4562   29.0381   22.0469 C   0  0  0  0  0  0  0  0  0  0  0  0
   15.6825   29.5092   20.9487 C   0  0  0  0  0  0  0  0  0  0  0  0
  1  2  1  0
  2  3  1  0
  3  4  1  1
  3  5  1  0
  5  6  1  6
  6  7  1  0
  7  8  2  0
  7  9  1  0
  9 10  1  1
 10 11  1  0
 11 12  2  0
 11 13  1  0
 13 14  1  6
 14 15  1  0
 15 16  1  0
 15 17  1  0
 13 18  1  0
 18 19  1  0
 19 20  2  0
 19 21  1  0
 21 22  1  1
 21 23  1  0
 23 24  1  0
  9 25  1  0
 25 26  1  6
 25 27  1  0
  5 28  1  0
 28 29  2  0
 28 30  1  0
 30 31  1  0
 31 32  1  1
 32 33  1  0
 33 34  2  0
 34 35  1  0
 35 36  2  0
 36 37  1  0
 37 38  1  0
 38 39  2  0
 38 40  1  0
 38 41  1  0
 36 42  1  0
 42 43  2  0
 31 44  1  0
 44 45  2  0
 44 46  1  0
 46 47  1  0
 47 48  1  1
 47 49  1  0
 49 50  2  0
 49 51  1  0
 51 52  1  0
 52 53  1  6
 53 54  1  0
 54 55  1  0
 55 56  1  0
 55 57  2  0
 52 58  1  0
 58 59  2  0
 58 60  1  0
 61 60  1  1
 61 62  1  0
 62 63  2  0
 62 64  1  0
 64 65  1  0
 65 66  1  1
 66 67  1  0
 67 68  1  0
 68 69  1  0
 68 70  2  0
 65 71  1  0
 71 72  2  0
 71 73  1  0
 73 74  1  0
 74 75  1  1
 75 76  1  0
 76 77  1  0
 77 78  1  0
 78 79  1  0
 74 80  1  0
 80 81  2  0
 80 82  1  0
 61 83  1  0
 83 84  1  0
 83 85  1  0
 43 33  1  0
M  CHG  2  22   1  79   1
M  END
>  <shape_align_shape_tanimoto>  (2) 
0.24627942349880938

>  <shape_align_color_tanimoto>  (2) 
0.058924745531647206

>  <metric>  (2) 
color

>  <metric_score>  (2) 
0.059

>  <template_pid>  (2) 
1D4W

>  <template_shape_score>  (2) 
0.246

>  <template_color_score>  (2) 
0.059

>  <template_combo_score>  (2) 
0.153

$$$$
1D4W_combo_pose
     RDKit          3D

 85 85  0  0  0  0  0  0  0  0999 V2000
   24.1756   23.3431   23.4553 C   0  0  0  0  0  0  0  0  0  0  0  0
   24.6111   22.0180   24.0521 C   0  0  0  0  0  0  0  0  0  0  0  0
   24.2235   20.8269   23.2572 C   0  0  2  0  0  0  0  0  0  0  0  0
   24.7686   20.9196   21.8457 C   0  0  0  0  0  0  0  0  0  0  0  0
   22.9005   20.2782   23.4502 C   0  0  2  0  0  0  0  0  0  0  0  0
   22.6825   19.1134   22.5320 N   0  0  0  0  0  0  0  0  0  0  0  0
   21.9808   17.9705   22.9043 C   0  0  0  0  0  0  0  0  0  0  0  0
   21.5202   17.9073   24.0773 O   0  0  0  0  0  0  0  0  0  0  0  0
   21.7338   16.8244   22.0099 C   0  0  1  0  0  0  0  0  0  0  0  0
   20.9372   15.8055   22.7390 N   0  0  0  0  0  0  0  0  0  0  0  0
   21.2091   14.4352   22.6336 C   0  0  0  0  0  0  0  0  0  0  0  0
   22.1646   13.9968   21.9071 O   0  0  0  0  0  0  0  0  0  0  0  0
   20.3958   13.4447   23.3557 C   0  0  2  0  0  0  0  0  0  0  0  0
   19.8072   12.4138   22.3967 C   0  0  0  0  0  0  0  0  0  0  0  0
   18.9335   12.9665   21.3393 C   0  0  0  0  0  0  0  0  0  0  0  0
   18.4593   11.7764   20.4983 C   0  0  0  0  0  0  0  0  0  0  0  0
   17.7147   13.6938   21.7711 C   0  0  0  0  0  0  0  0  0  0  0  0
   19.3951   13.9834   24.2255 N   0  0  0  0  0  0  0  0  0  0  0  0
   19.3461   13.5018   25.5751 C   0  0  0  0  0  0  0  0  0  0  0  0
   20.1758   12.6187   25.9758 O   0  0  0  0  0  0  0  0  0  0  0  0
   18.3665   13.9722   26.5682 C   0  0  1  0  0  0  0  0  0  0  0  0
   18.6152   13.1922   27.7883 N   0  0  0  0  0  0  0  0  0  0  0  0
   18.4970   15.4502   26.8799 C   0  0  0  0  0  0  0  0  0  0  0  0
   17.5829   15.8256   27.8406 O   0  0  0  0  0  0  0  0  0  0  0  0
   20.9148   17.2058   20.7659 C   0  0  1  0  0  0  0  0  0  0  0  0
   21.6379   18.1049   19.8182 C   0  0  0  0  0  0  0  0  0  0  0  0
   20.6901   16.0141   20.0215 O   0  0  0  0  0  0  0  0  0  0  0  0
   21.7611   21.1371   23.1961 C   0  0  0  0  0  0  0  0  0  0  0  0
   21.0283   20.7861   22.1826 O   0  0  0  0  0  0  0  0  0  0  0  0
   21.2941   22.2912   23.8674 N   0  0  0  0  0  0  0  0  0  0  0  0
   20.0725   22.8607   23.3251 C   0  0  1  0  0  0  0  0  0  0  0  0
   19.1482   23.2416   24.4639 C   0  0  0  0  0  0  0  0  0  0  0  0
   18.8262   22.0704   25.2888 C   0  0  0  0  0  0  0  0  0  0  0  0
   17.7963   21.1943   25.0843 C   0  0  0  0  0  0  0  0  0  0  0  0
   17.6136   20.1435   25.9728 C   0  0  0  0  0  0  0  0  0  0  0  0
   18.4137   19.9244   27.0606 C   0  0  0  0  0  0  0  0  0  0  0  0
   18.2345   18.8714   27.9548 O   0  0  0  0  0  0  0  0  0  0  0  0
   19.2393   18.7369   29.3300 P   0  0  0  0  0  0  0  0  0  0  0  0
   19.0344   19.9660   30.1932 O   0  0  0  0  0  0  0  0  0  0  0  0
   18.8102   17.3645   30.2151 O   0  0  0  0  0  0  0  0  0  0  0  0
   20.8749   18.6163   28.8630 O   0  0  0  0  0  0  0  0  0  0  0  0
   19.4572   20.8116   27.2668 C   0  0  0  0  0  0  0  0  0  0  0  0
   19.6482   21.8481   26.4025 C   0  0  0  0  0  0  0  0  0  0  0  0
   20.3348   24.1422   22.5585 C   0  0  0  0  0  0  0  0  0  0  0  0
   21.3884   24.7935   22.6714 O   0  0  0  0  0  0  0  0  0  0  0  0
   19.2891   24.5433   21.6954 N   0  0  0  0  0  0  0  0  0  0  0  0
   19.2748   25.7141   20.8719 C   0  0  1  0  0  0  0  0  0  0  0  0
   20.0990   25.4718   19.5951 C   0  0  0  0  0  0  0  0  0  0  0  0
   17.8945   26.0345   20.5236 C   0  0  0  0  0  0  0  0  0  0  0  0
   17.0010   25.2349   20.9945 O   0  0  0  0  0  0  0  0  0  0  0  0
   17.4620   27.1205   19.7254 N   0  0  0  0  0  0  0  0  0  0  0  0
   16.0451   27.3136   19.4233 C   0  0  1  0  0  0  0  0  0  0  0  0
   15.4565   28.4887   20.0605 C   0  0  0  0  0  0  0  0  0  0  0  0
   16.0208   29.8365   19.7931 C   0  0  0  0  0  0  0  0  0  0  0  0
   15.8961   30.3218   18.4266 C   0  0  0  0  0  0  0  0  0  0  0  0
   16.8568   31.2939   17.9760 N   0  0  0  0  0  0  0  0  0  0  0  0
   15.0330   29.9889   17.5864 O   0  0  0  0  0  0  0  0  0  0  0  0
   15.7438   27.0875   18.0078 C   0  0  0  0  0  0  0  0  0  0  0  0
   14.5915   27.0699   17.5039 O   0  0  0  0  0  0  0  0  0  0  0  0
   16.8741   26.8633   17.1375 N   0  0  0  0  0  0  0  0  0  0  0  0
   16.8101   26.5960   15.7489 C   0  0  2  0  0  0  0  0  0  0  0  0
   17.5385   25.3488   15.4215 C   0  0  0  0  0  0  0  0  0  0  0  0
   17.5290   25.0032   14.1932 O   0  0  0  0  0  0  0  0  0  0  0  0
   18.2292   24.5383   16.3503 N   0  0  0  0  0  0  0  0  0  0  0  0
   18.9138   23.3598   15.9463 C   0  0  1  0  0  0  0  0  0  0  0  0
   20.4331   23.5712   16.0641 C   0  0  0  0  0  0  0  0  0  0  0  0
   20.9382   24.6925   15.2243 C   0  0  0  0  0  0  0  0  0  0  0  0
   22.4297   24.7764   15.4305 C   0  0  0  0  0  0  0  0  0  0  0  0
   23.1665   25.7430   14.6992 N   0  0  0  0  0  0  0  0  0  0  0  0
   23.0293   24.0135   16.2298 O   0  0  0  0  0  0  0  0  0  0  0  0
   18.6473   22.1472   16.7485 C   0  0  0  0  0  0  0  0  0  0  0  0
   19.3244   21.1112   16.4099 O   0  0  0  0  0  0  0  0  0  0  0  0
   17.7362   22.0829   17.8084 N   0  0  0  0  0  0  0  0  0  0  0  0
   17.6332   20.7341   18.5029 C   0  0  1  0  0  0  0  0  0  0  0  0
   17.6516   21.1055   19.9258 C   0  0  0  0  0  0  0  0  0  0  0  0
   17.6529   20.1412   21.0193 C   0  0  0  0  0  0  0  0  0  0  0  0
   16.5565   19.1481   21.1684 C   0  0  0  0  0  0  0  0  0  0  0  0
   16.8919   18.3908   22.4909 C   0  0  0  0  0  0  0  0  0  0  0  0
   15.9237   17.3758   22.7653 N   0  0  0  0  0  0  0  0  0  0  0  0
   16.3374   20.2039   17.9817 C   0  0  0  0  0  0  0  0  0  0  0  0
   15.6894   21.0432   17.2549 O   0  0  0  0  0  0  0  0  0  0  0  0
   15.7806   18.9952   18.1671 O   0  0  0  0  0  0  0  0  0  0  0  0
   17.3306   27.6953   14.8370 C   0  0  0  0  0  0  0  0  0  0  0  0
   16.5634   28.9854   14.9815 C   0  0  0  0  0  0  0  0  0  0  0  0
   18.8205   27.9149   14.9944 C   0  0  0  0  0  0  0  0  0  0  0  0
  1  2  1  0
  2  3  1  0
  3  4  1  6
  3  5  1  0
  5  6  1  6
  6  7  1  0
  7  8  2  0
  7  9  1  0
  9 10  1  1
 10 11  1  0
 11 12  2  0
 11 13  1  0
 13 14  1  6
 14 15  1  0
 15 16  1  0
 15 17  1  0
 13 18  1  0
 18 19  1  0
 19 20  2  0
 19 21  1  0
 21 22  1  1
 21 23  1  0
 23 24  1  0
  9 25  1  0
 25 26  1  6
 25 27  1  0
  5 28  1  0
 28 29  2  0
 28 30  1  0
 30 31  1  0
 31 32  1  1
 32 33  1  0
 33 34  2  0
 34 35  1  0
 35 36  2  0
 36 37  1  0
 37 38  1  0
 38 39  2  0
 38 40  1  0
 38 41  1  0
 36 42  1  0
 42 43  2  0
 31 44  1  0
 44 45  2  0
 44 46  1  0
 46 47  1  0
 47 48  1  6
 47 49  1  0
 49 50  2  0
 49 51  1  0
 51 52  1  0
 52 53  1  6
 53 54  1  0
 54 55  1  0
 55 56  1  0
 55 57  2  0
 52 58  1  0
 58 59  2  0
 58 60  1  0
 61 60  1  1
 61 62  1  0
 62 63  2  0
 62 64  1  0
 64 65  1  0
 65 66  1  1
 66 67  1  0
 67 68  1  0
 68 69  1  0
 68 70  2  0
 65 71  1  0
 71 72  2  0
 71 73  1  0
 73 74  1  0
 74 75  1  1
 75 76  1  0
 76 77  1  0
 77 78  1  0
 78 79  1  0
 74 80  1  0
 80 81  2  0
 80 82  1  0
 61 83  1  0
 83 84  1  0
 83 85  1  0
 43 33  1  0
M  CHG  2  22   1  79   1
M  END
>  <shape_align_shape_tanimoto>  (3) 
0.39311734935524012

>  <shape_align_color_tanimoto>  (3) 
0.013556790599766401

>  <metric>  (3) 
combo

>  <metric_score>  (3) 
0.203

>  <template_pid>  (3) 
1D4W

>  <template_shape_score>  (3) 
0.393

>  <template_color_score>  (3) 
0.014

>  <template_combo_score>  (3) 
0.203

$$$$
