1OLU_shape_pose
     RDKit          3D

 26 27  0  0  0  0  0  0  0  0999 V2000
  -11.0033   50.6047   46.1046 C   0  0  0  0  0  0  0  0  0  0  0  0
  -10.8735   51.0970   47.5212 C   0  0  0  0  0  0  0  0  0  0  0  0
  -10.1376   50.4550   48.4314 N   0  0  0  0  0  0  0  0  0  0  0  0
  -10.0454   50.9171   49.6664 C   0  0  0  0  0  0  0  0  0  0  0  0
  -10.7032   52.0886   50.0872 C   0  0  0  0  0  0  0  0  0  0  0  0
  -10.5190   52.4788   51.4646 C   0  0  0  0  0  0  0  0  0  0  0  0
  -11.3501   53.5912   51.9447 N   0  0  0  0  0  0  0  0  0  0  0  0
  -10.8634   54.8528   51.8477 C   0  0  0  0  0  0  0  0  0  0  0  0
  -12.1750   55.9396   52.5672 S   0  0  0  0  0  0  0  0  0  0  0  0
  -13.2220   54.5250   52.9079 C   0  0  0  0  0  0  0  0  0  0  0  0
  -14.5389   54.7370   53.5193 C   0  0  0  0  0  0  0  0  0  0  0  0
  -15.6150   54.6899   52.4624 C   0  0  0  0  0  0  0  0  0  0  0  0
  -15.6476   53.4852   51.8218 O   0  0  0  0  0  0  0  0  0  0  0  0
  -16.7986   53.3942   50.5991 P   0  0  2  0  0  5  0  0  0  0  0  0
  -17.4355   54.7870   50.5247 O   0  0  0  0  0  0  0  0  0  0  0  0
  -17.9845   52.2506   50.8715 O   0  0  0  0  0  0  0  0  0  0  0  0
  -15.9875   53.1858   49.1309 O   0  0  0  0  0  0  0  0  0  0  0  0
  -15.9814   54.5926   48.1929 P   0  0  0  0  0  0  0  0  0  0  0  0
  -15.0462   55.6505   48.7360 O   0  0  0  0  0  0  0  0  0  0  0  0
  -17.5383   55.2964   48.1700 O   0  0  0  0  0  0  0  0  0  0  0  0
  -15.5485   54.1551   46.6115 O   0  0  0  0  0  0  0  0  0  0  0  0
  -12.5351   53.4445   52.4797 C   0  0  0  0  0  0  0  0  0  0  0  0
  -13.1485   52.0461   52.6406 C   0  0  0  0  0  0  0  0  0  0  0  0
  -11.4484   52.7185   49.1235 C   0  0  0  0  0  0  0  0  0  0  0  0
  -12.1667   53.8979   49.3618 N   0  0  0  0  0  0  0  0  0  0  0  0
  -11.5278   52.2183   47.8491 N   0  0  0  0  0  0  0  0  0  0  0  0
  1  2  1  0
  2  3  2  0
  3  4  1  0
  4  5  2  0
  5  6  1  0
  6  7  1  0
  7  8  2  0
  8  9  1  0
  9 10  1  0
 10 11  1  0
 11 12  1  0
 12 13  1  0
 13 14  1  0
 14 15  2  0
 14 16  1  1
 14 17  1  0
 17 18  1  0
 18 19  2  0
 18 20  1  0
 18 21  1  0
 10 22  2  0
 22 23  1  0
  5 24  1  0
 24 25  1  0
 24 26  2  0
 26  2  1  0
 22  7  1  0
M  CHG  1   7   1
M  END
>  <shape_align_shape_tanimoto>  (1) 
0.6163137541822501

>  <shape_align_color_tanimoto>  (1) 
0.058917953181013068

>  <metric>  (1) 
shape

>  <metric_score>  (1) 
0.616

>  <template_pid>  (1) 
1OLU

>  <template_shape_score>  (1) 
0.616

>  <template_color_score>  (1) 
0.059

>  <template_combo_score>  (1) 
0.338

$$$$
1OLU_color_pose
     RDKit          3D

 26 27  0  0  0  0  0  0  0  0999 V2000
   -5.6891   50.3132   46.2586 C   0  0  0  0  0  0  0  0  0  0  0  0
   -7.0418   50.7966   46.6303 C   0  0  0  0  0  0  0  0  0  0  0  0
   -7.9304   49.8857   47.0329 N   0  0  0  0  0  0  0  0  0  0  0  0
   -9.1786   50.2074   47.4002 C   0  0  0  0  0  0  0  0  0  0  0  0
   -9.6246   51.5544   47.3791 C   0  0  0  0  0  0  0  0  0  0  0  0
  -10.9785   51.7776   47.8430 C   0  0  0  0  0  0  0  0  0  0  0  0
  -11.1018   52.1398   49.2797 N   0  0  0  0  0  0  0  0  0  0  0  0
  -11.0793   51.0273   50.1374 C   0  0  0  0  0  0  0  0  0  0  0  0
  -11.2129   51.7528   51.8109 S   0  0  0  0  0  0  0  0  0  0  0  0
  -11.2830   53.3942   51.2144 C   0  0  0  0  0  0  0  0  0  0  0  0
  -11.4500   54.5023   52.1400 C   0  0  0  0  0  0  0  0  0  0  0  0
  -12.9160   54.8527   52.2551 C   0  0  0  0  0  0  0  0  0  0  0  0
  -13.6396   53.7397   52.7563 O   0  0  0  0  0  0  0  0  0  0  0  0
  -15.3038   54.0105   52.7325 P   0  0  2  0  0  5  0  0  0  0  0  0
  -15.6853   54.6940   54.0158 O   0  0  0  0  0  0  0  0  0  0  0  0
  -16.0833   52.5118   52.6093 O   0  0  0  0  0  0  0  0  0  0  0  0
  -15.7455   55.0023   51.4278 O   0  0  0  0  0  0  0  0  0  0  0  0
  -16.1251   54.0835   50.0624 P   0  0  0  0  0  0  0  0  0  0  0  0
  -17.5710   53.6563   50.1190 O   0  0  0  0  0  0  0  0  0  0  0  0
  -15.1198   52.7282   49.9481 O   0  0  0  0  0  0  0  0  0  0  0  0
  -15.8819   55.0655   48.7024 O   0  0  0  0  0  0  0  0  0  0  0  0
  -11.2028   53.2948   49.8431 C   0  0  0  0  0  0  0  0  0  0  0  0
  -11.2294   54.5899   49.0298 C   0  0  0  0  0  0  0  0  0  0  0  0
   -8.6866   52.4504   46.9600 C   0  0  0  0  0  0  0  0  0  0  0  0
   -9.0078   53.8200   46.8419 N   0  0  0  0  0  0  0  0  0  0  0  0
   -7.4261   52.0749   46.5955 N   0  0  0  0  0  0  0  0  0  0  0  0
  1  2  1  0
  2  3  2  0
  3  4  1  0
  4  5  2  0
  5  6  1  0
  6  7  1  0
  7  8  2  0
  8  9  1  0
  9 10  1  0
 10 11  1  0
 11 12  1  0
 12 13  1  0
 13 14  1  0
 14 15  2  0
 14 16  1  6
 14 17  1  0
 17 18  1  0
 18 19  2  0
 18 20  1  0
 18 21  1  0
 10 22  2  0
 22 23  1  0
  5 24  1  0
 24 25  1  0
 24 26  2  0
 26  2  1  0
 22  7  1  0
M  CHG  1   7   1
M  END
>  <shape_align_shape_tanimoto>  (2) 
0.49181928382734447

>  <shape_align_color_tanimoto>  (2) 
0.099983181422453771

>  <metric>  (2) 
color

>  <metric_score>  (2) 
0.100

>  <template_pid>  (2) 
1OLU

>  <template_shape_score>  (2) 
0.492

>  <template_color_score>  (2) 
0.100

>  <template_combo_score>  (2) 
0.296

$$$$
1OLU_combo_pose
     RDKit          3D

 26 27  0  0  0  0  0  0  0  0999 V2000
  -11.0033   50.6047   46.1046 C   0  0  0  0  0  0  0  0  0  0  0  0
  -10.8735   51.0970   47.5212 C   0  0  0  0  0  0  0  0  0  0  0  0
  -10.1376   50.4550   48.4314 N   0  0  0  0  0  0  0  0  0  0  0  0
  -10.0454   50.9171   49.6664 C   0  0  0  0  0  0  0  0  0  0  0  0
  -10.7032   52.0886   50.0872 C   0  0  0  0  0  0  0  0  0  0  0  0
  -10.5190   52.4788   51.4646 C   0  0  0  0  0  0  0  0  0  0  0  0
  -11.3501   53.5912   51.9447 N   0  0  0  0  0  0  0  0  0  0  0  0
  -10.8634   54.8528   51.8477 C   0  0  0  0  0  0  0  0  0  0  0  0
  -12.1750   55.9396   52.5672 S   0  0  0  0  0  0  0  0  0  0  0  0
  -13.2220   54.5250   52.9079 C   0  0  0  0  0  0  0  0  0  0  0  0
  -14.5389   54.7370   53.5193 C   0  0  0  0  0  0  0  0  0  0  0  0
  -15.6150   54.6899   52.4624 C   0  0  0  0  0  0  0  0  0  0  0  0
  -15.6476   53.4852   51.8218 O   0  0  0  0  0  0  0  0  0  0  0  0
  -16.7986   53.3942   50.5991 P   0  0  2  0  0  5  0  0  0  0  0  0
  -17.4355   54.7870   50.5247 O   0  0  0  0  0  0  0  0  0  0  0  0
  -17.9845   52.2506   50.8715 O   0  0  0  0  0  0  0  0  0  0  0  0
  -15.9875   53.1858   49.1309 O   0  0  0  0  0  0  0  0  0  0  0  0
  -15.9814   54.5926   48.1929 P   0  0  0  0  0  0  0  0  0  0  0  0
  -15.0462   55.6505   48.7360 O   0  0  0  0  0  0  0  0  0  0  0  0
  -17.5383   55.2964   48.1700 O   0  0  0  0  0  0  0  0  0  0  0  0
  -15.5485   54.1551   46.6115 O   0  0  0  0  0  0  0  0  0  0  0  0
  -12.5351   53.4445   52.4797 C   0  0  0  0  0  0  0  0  0  0  0  0
  -13.1485   52.0461   52.6406 C   0  0  0  0  0  0  0  0  0  0  0  0
  -11.4484   52.7185   49.1235 C   0  0  0  0  0  0  0  0  0  0  0  0
  -12.1667   53.8979   49.3618 N   0  0  0  0  0  0  0  0  0  0  0  0
  -11.5278   52.2183   47.8491 N   0  0  0  0  0  0  0  0  0  0  0  0
  1  2  1  0
  2  3  2  0
  3  4  1  0
  4  5  2  0
  5  6  1  0
  6  7  1  0
  7  8  2  0
  8  9  1  0
  9 10  1  0
 10 11  1  0
 11 12  1  0
 12 13  1  0
 13 14  1  0
 14 15  2  0
 14 16  1  1
 14 17  1  0
 17 18  1  0
 18 19  2  0
 18 20  1  0
 18 21  1  0
 10 22  2  0
 22 23  1  0
  5 24  1  0
 24 25  1  0
 24 26  2  0
 26  2  1  0
 22  7  1  0
M  CHG  1   7   1
M  END
>  <shape_align_shape_tanimoto>  (3) 
0.6163137541822501

>  <shape_align_color_tanimoto>  (3) 
0.058917953181013068

>  <metric>  (3) 
combo

>  <metric_score>  (3) 
0.338

>  <template_pid>  (3) 
1OLU

>  <template_shape_score>  (3) 
0.616

>  <template_color_score>  (3) 
0.059

>  <template_combo_score>  (3) 
0.338

$$$$
