1Q4L_shape_pose
     RDKit          3D

 25 27  0  0  0  0  0  0  0  0999 V2000
    2.3994  -36.2671  -13.7091 O   0  0  0  0  0  0  0  0  0  0  0  0
    1.2233  -36.4617  -14.1279 C   0  0  0  0  0  0  0  0  0  0  0  0
    0.2142  -35.5579  -13.8194 O   0  0  0  0  0  0  0  0  0  0  0  0
    0.9347  -37.6425  -14.9373 C   0  0  0  0  0  0  0  0  0  0  0  0
   -0.3171  -37.8907  -15.4087 C   0  0  0  0  0  0  0  0  0  0  0  0
   -0.6339  -39.0140  -16.1894 C   0  0  0  0  0  0  0  0  0  0  0  0
   -1.9673  -39.2041  -16.6264 N   0  0  0  0  0  0  0  0  0  0  0  0
   -2.4203  -40.2822  -17.4661 C   0  0  0  0  0  0  0  0  0  0  0  0
   -1.7928  -39.9445  -18.8086 C   0  0  0  0  0  0  0  0  0  0  0  0
   -0.9029  -40.5427  -19.4385 O   0  0  0  0  0  0  0  0  0  0  0  0
   -2.5038  -38.7335  -19.1758 N   0  0  0  0  0  0  0  0  0  0  0  0
   -3.7948  -38.7868  -18.5114 C   0  0  0  0  0  0  0  0  0  0  0  0
   -4.6187  -37.8525  -18.4814 O   0  0  0  0  0  0  0  0  0  0  0  0
   -3.8473  -40.1421  -17.9338 C   0  0  0  0  0  0  0  0  0  0  0  0
   -4.9178  -40.4880  -17.0613 C   0  0  0  0  0  0  0  0  0  0  0  0
   -5.6190  -41.6868  -17.3064 C   0  0  0  0  0  0  0  0  0  0  0  0
   -6.6694  -42.0870  -16.5138 C   0  0  0  0  0  0  0  0  0  0  0  0
   -7.0894  -41.3339  -15.4381 C   0  0  0  0  0  0  0  0  0  0  0  0
   -6.4271  -40.1705  -15.1809 C   0  0  0  0  0  0  0  0  0  0  0  0
   -6.9409  -39.1980  -13.8223 Cl  0  0  0  0  0  0  0  0  0  0  0  0
   -5.3761  -39.7710  -15.9749 C   0  0  0  0  0  0  0  0  0  0  0  0
    0.4056  -39.8619  -16.4549 C   0  0  0  0  0  0  0  0  0  0  0  0
    1.7039  -39.6466  -15.9926 C   0  0  0  0  0  0  0  0  0  0  0  0
    1.9517  -38.5258  -15.2311 C   0  0  0  0  0  0  0  0  0  0  0  0
    3.5605  -38.2041  -14.6240 Cl  0  0  0  0  0  0  0  0  0  0  0  0
  1  2  2  0
  2  3  1  0
  2  4  1  0
  4  5  2  0
  5  6  1  0
  6  7  1  0
  7  8  1  0
  8  9  1  0
  9 10  2  0
  9 11  1  0
 11 12  1  0
 12 13  2  0
 12 14  1  0
 14 15  1  0
 15 16  2  0
 16 17  1  0
 17 18  2  0
 18 19  1  0
 19 20  1  0
 19 21  2  0
  6 22  2  0
 22 23  1  0
 23 24  2  0
 24 25  1  0
 24  4  1  0
 14  8  1  0
 21 15  1  0
M  CHG  1   3  -1
M  END
>  <shape_align_shape_tanimoto>  (1) 
0.67781312405107064

>  <shape_align_color_tanimoto>  (1) 
0.062033363042227833

>  <metric>  (1) 
shape

>  <metric_score>  (1) 
0.678

>  <template_pid>  (1) 
1Q4L

>  <template_shape_score>  (1) 
0.678

>  <template_color_score>  (1) 
0.062

>  <template_combo_score>  (1) 
0.370

$$$$
1Q4L_color_pose
     RDKit          3D

 25 27  0  0  0  0  0  0  0  0999 V2000
    2.4741  -36.5958  -13.6512 O   0  0  0  0  0  0  0  0  0  0  0  0
    1.3407  -36.4849  -14.1705 C   0  0  0  0  0  0  0  0  0  0  0  0
    0.5910  -35.3391  -13.9675 O   0  0  0  0  0  0  0  0  0  0  0  0
    0.8317  -37.5814  -14.9880 C   0  0  0  0  0  0  0  0  0  0  0  0
   -0.4109  -37.4843  -15.5699 C   0  0  0  0  0  0  0  0  0  0  0  0
   -0.9427  -38.5118  -16.3636 C   0  0  0  0  0  0  0  0  0  0  0  0
   -2.2249  -38.3909  -16.9665 N   0  0  0  0  0  0  0  0  0  0  0  0
   -2.8660  -39.3842  -17.7638 C   0  0  0  0  0  0  0  0  0  0  0  0
   -2.0018  -39.8264  -18.9060 C   0  0  0  0  0  0  0  0  0  0  0  0
   -1.2069  -39.0366  -19.5091 O   0  0  0  0  0  0  0  0  0  0  0  0
   -2.2322  -41.2077  -19.1619 N   0  0  0  0  0  0  0  0  0  0  0  0
   -2.8521  -41.7514  -17.9997 C   0  0  0  0  0  0  0  0  0  0  0  0
   -3.0627  -42.9706  -17.7720 O   0  0  0  0  0  0  0  0  0  0  0  0
   -3.2252  -40.6405  -17.0678 C   0  0  0  0  0  0  0  0  0  0  0  0
   -4.6399  -40.7281  -16.6535 C   0  0  0  0  0  0  0  0  0  0  0  0
   -4.9086  -40.9322  -15.3102 C   0  0  0  0  0  0  0  0  0  0  0  0
   -6.2340  -41.0222  -14.8689 C   0  0  0  0  0  0  0  0  0  0  0  0
   -7.2947  -40.9117  -15.7472 C   0  0  0  0  0  0  0  0  0  0  0  0
   -7.0248  -40.7087  -17.0826 C   0  0  0  0  0  0  0  0  0  0  0  0
   -8.3679  -40.5678  -18.2018 Cl  0  0  0  0  0  0  0  0  0  0  0  0
   -5.7015  -40.6216  -17.5050 C   0  0  0  0  0  0  0  0  0  0  0  0
   -0.1298  -39.6146  -16.5130 C   0  0  0  0  0  0  0  0  0  0  0  0
    1.1223  -39.7157  -15.9282 C   0  0  0  0  0  0  0  0  0  0  0  0
    1.6162  -38.6911  -15.1549 C   0  0  0  0  0  0  0  0  0  0  0  0
    3.1955  -38.8166  -14.4163 Cl  0  0  0  0  0  0  0  0  0  0  0  0
  1  2  2  0
  2  3  1  0
  2  4  1  0
  4  5  2  0
  5  6  1  0
  6  7  1  0
  7  8  1  0
  8  9  1  0
  9 10  2  0
  9 11  1  0
 11 12  1  0
 12 13  2  0
 12 14  1  0
 14 15  1  0
 15 16  2  0
 16 17  1  0
 17 18  2  0
 18 19  1  0
 19 20  1  0
 19 21  2  0
  6 22  2  0
 22 23  1  0
 23 24  2  0
 24 25  1  0
 24  4  1  0
 14  8  1  0
 21 15  1  0
M  CHG  1   3  -1
M  END
>  <shape_align_shape_tanimoto>  (2) 
0.62602191167184285

>  <shape_align_color_tanimoto>  (2) 
0.11094703510854965

>  <metric>  (2) 
color

>  <metric_score>  (2) 
0.111

>  <template_pid>  (2) 
1Q4L

>  <template_shape_score>  (2) 
0.626

>  <template_color_score>  (2) 
0.111

>  <template_combo_score>  (2) 
0.368

$$$$
1Q4L_combo_pose
     RDKit          3D

 25 27  0  0  0  0  0  0  0  0999 V2000
   -4.0997  -38.5398  -13.5766 O   0  0  0  0  0  0  0  0  0  0  0  0
   -5.2569  -38.9652  -13.7938 C   0  0  0  0  0  0  0  0  0  0  0  0
   -6.2861  -38.6579  -12.9161 O   0  0  0  0  0  0  0  0  0  0  0  0
   -5.5851  -39.7993  -14.9693 C   0  0  0  0  0  0  0  0  0  0  0  0
   -4.5813  -40.1312  -15.8755 C   0  0  0  0  0  0  0  0  0  0  0  0
   -4.8213  -40.9057  -16.9923 C   0  0  0  0  0  0  0  0  0  0  0  0
   -3.8097  -41.2393  -17.9093 N   0  0  0  0  0  0  0  0  0  0  0  0
   -2.4400  -40.8388  -17.8373 C   0  0  0  0  0  0  0  0  0  0  0  0
   -1.6227  -41.4015  -18.9504 C   0  0  0  0  0  0  0  0  0  0  0  0
   -1.2414  -42.6024  -18.9985 O   0  0  0  0  0  0  0  0  0  0  0  0
   -1.3838  -40.3561  -19.8832 N   0  0  0  0  0  0  0  0  0  0  0  0
   -1.7721  -39.1078  -19.3089 C   0  0  0  0  0  0  0  0  0  0  0  0
   -1.7317  -38.0019  -19.9227 O   0  0  0  0  0  0  0  0  0  0  0  0
   -2.2212  -39.3474  -17.8900 C   0  0  0  0  0  0  0  0  0  0  0  0
   -1.1694  -38.8804  -16.9505 C   0  0  0  0  0  0  0  0  0  0  0  0
    0.0471  -39.5364  -16.9686 C   0  0  0  0  0  0  0  0  0  0  0  0
    1.0474  -39.1326  -16.1124 C   0  0  0  0  0  0  0  0  0  0  0  0
    0.8645  -38.0788  -15.2276 C   0  0  0  0  0  0  0  0  0  0  0  0
   -0.3549  -37.4354  -15.2226 C   0  0  0  0  0  0  0  0  0  0  0  0
   -0.6275  -36.0975  -14.1188 Cl  0  0  0  0  0  0  0  0  0  0  0  0
   -1.3805  -37.8255  -16.0784 C   0  0  0  0  0  0  0  0  0  0  0  0
   -6.1226  -41.3407  -17.1686 C   0  0  0  0  0  0  0  0  0  0  0  0
   -7.1447  -41.0345  -16.2953 C   0  0  0  0  0  0  0  0  0  0  0  0
   -6.8686  -40.2582  -15.1898 C   0  0  0  0  0  0  0  0  0  0  0  0
   -8.1245  -39.8322  -14.0392 Cl  0  0  0  0  0  0  0  0  0  0  0  0
  1  2  2  0
  2  3  1  0
  2  4  1  0
  4  5  2  0
  5  6  1  0
  6  7  1  0
  7  8  1  0
  8  9  1  0
  9 10  2  0
  9 11  1  0
 11 12  1  0
 12 13  2  0
 12 14  1  0
 14 15  1  0
 15 16  2  0
 16 17  1  0
 17 18  2  0
 18 19  1  0
 19 20  1  0
 19 21  2  0
  6 22  2  0
 22 23  1  0
 23 24  2  0
 24 25  1  0
 24  4  1  0
 14  8  1  0
 21 15  1  0
M  CHG  1   3  -1
M  END
>  <shape_align_shape_tanimoto>  (3) 
0.67558027005058952

>  <shape_align_color_tanimoto>  (3) 
0.080038633770244005

>  <metric>  (3) 
combo

>  <metric_score>  (3) 
0.378

>  <template_pid>  (3) 
1Q4L

>  <template_shape_score>  (3) 
0.676

>  <template_color_score>  (3) 
0.080

>  <template_combo_score>  (3) 
0.378

$$$$
