2O65_shape_pose
     RDKit          3D

 22 24  0  0  0  0  0  0  0  0999 V2000
   -4.0364   -2.6695   22.1068 O   0  0  0  0  0  0  0  0  0  0  0  0
   -4.0809   -1.4511   21.8669 C   0  0  0  0  0  0  0  0  0  0  0  0
   -4.2071   -0.9247   20.5801 C   0  0  0  0  0  0  0  0  0  0  0  0
   -4.2540    0.4179   20.3399 C   0  0  0  0  0  0  0  0  0  0  0  0
   -4.3848    1.0145   19.0158 C   0  0  0  0  0  0  0  0  0  0  0  0
   -4.4202    2.3853   18.9091 C   0  0  0  0  0  0  0  0  0  0  0  0
   -4.5445    3.0115   17.6635 C   0  0  0  0  0  0  0  0  0  0  0  0
   -4.5773    4.3996   17.5899 O   0  0  0  0  0  0  0  0  0  0  0  0
   -4.6313    2.2148   16.5379 C   0  0  0  0  0  0  0  0  0  0  0  0
   -4.7554    2.8404   15.2943 O   0  0  0  0  0  0  0  0  0  0  0  0
   -4.5995    0.8378   16.6031 C   0  0  0  0  0  0  0  0  0  0  0  0
   -4.6855    0.0248   15.4828 O   0  0  0  0  0  0  0  0  0  0  0  0
   -4.4757    0.2747   17.8559 C   0  0  0  0  0  0  0  0  0  0  0  0
   -4.1767    1.2338   21.3649 O   0  0  0  0  0  0  0  0  0  0  0  0
   -4.0563    0.8287   22.6130 C   0  0  0  0  0  0  0  0  0  0  0  0
   -3.9869    1.7971   23.5824 C   0  0  0  0  0  0  0  0  0  0  0  0
   -3.8586    1.4222   24.9245 C   0  0  0  0  0  0  0  0  0  0  0  0
   -3.7884    2.4038   25.9054 O   0  0  0  0  0  0  0  0  0  0  0  0
   -3.8074    0.0705   25.2101 C   0  0  0  0  0  0  0  0  0  0  0  0
   -3.8795   -0.8949   24.2115 C   0  0  0  0  0  0  0  0  0  0  0  0
   -3.8246   -2.2589   24.5358 O   0  0  0  0  0  0  0  0  0  0  0  0
   -4.0063   -0.5226   22.8857 C   0  0  0  0  0  0  0  0  0  0  0  0
  1  2  2  0
  2  3  1  0
  3  4  2  0
  4  5  1  0
  5  6  2  0
  6  7  1  0
  7  8  1  0
  7  9  2  0
  9 10  1  0
  9 11  1  0
 11 12  1  0
 11 13  2  0
  4 14  1  0
 14 15  1  0
 15 16  2  0
 16 17  1  0
 17 18  1  0
 17 19  2  0
 19 20  1  0
 20 21  1  0
 20 22  2  0
 22  2  1  0
 13  5  1  0
 22 15  1  0
M  END
>  <shape_align_shape_tanimoto>  (1) 
0.41537206336777205

>  <shape_align_color_tanimoto>  (1) 
0.10567576473718207

>  <metric>  (1) 
shape

>  <metric_score>  (1) 
0.415

>  <template_pid>  (1) 
2O65

>  <template_shape_score>  (1) 
0.415

>  <template_color_score>  (1) 
0.106

>  <template_combo_score>  (1) 
0.261

$$$$
2O65_color_pose
     RDKit          3D

 22 24  0  0  0  0  0  0  0  0999 V2000
   -4.5087   -1.7374   17.8264 O   0  0  0  0  0  0  0  0  0  0  0  0
   -4.4180   -0.7744   18.6285 C   0  0  0  0  0  0  0  0  0  0  0  0
   -4.3041   -0.9322   19.9961 C   0  0  0  0  0  0  0  0  0  0  0  0
   -4.2062    0.1382   20.8539 C   0  0  0  0  0  0  0  0  0  0  0  0
   -4.0850    0.0127   22.2980 C   0  0  0  0  0  0  0  0  0  0  0  0
   -3.9945    1.1596   23.0485 C   0  0  0  0  0  0  0  0  0  0  0  0
   -3.8769    1.0710   24.4406 C   0  0  0  0  0  0  0  0  0  0  0  0
   -3.7893    2.2695   25.1441 O   0  0  0  0  0  0  0  0  0  0  0  0
   -3.8484   -0.1407   25.0937 C   0  0  0  0  0  0  0  0  0  0  0  0
   -3.7302   -0.2036   26.4872 O   0  0  0  0  0  0  0  0  0  0  0  0
   -3.9396   -1.2887   24.3363 C   0  0  0  0  0  0  0  0  0  0  0  0
   -3.9123   -2.5314   24.9826 O   0  0  0  0  0  0  0  0  0  0  0  0
   -4.0553   -1.1923   22.9625 C   0  0  0  0  0  0  0  0  0  0  0  0
   -4.2223    1.3479   20.3466 O   0  0  0  0  0  0  0  0  0  0  0  0
   -4.3288    1.5656   19.0484 C   0  0  0  0  0  0  0  0  0  0  0  0
   -4.3326    2.8966   18.6520 C   0  0  0  0  0  0  0  0  0  0  0  0
   -4.4442    3.1589   17.2837 C   0  0  0  0  0  0  0  0  0  0  0  0
   -4.4554    4.4575   16.8100 O   0  0  0  0  0  0  0  0  0  0  0  0
   -4.5471    2.1318   16.3571 C   0  0  0  0  0  0  0  0  0  0  0  0
   -4.5385    0.8231   16.8034 C   0  0  0  0  0  0  0  0  0  0  0  0
   -4.6399   -0.2157   15.8969 O   0  0  0  0  0  0  0  0  0  0  0  0
   -4.4300    0.5232   18.1456 C   0  0  0  0  0  0  0  0  0  0  0  0
  1  2  2  0
  2  3  1  0
  3  4  2  0
  4  5  1  0
  5  6  2  0
  6  7  1  0
  7  8  1  0
  7  9  2  0
  9 10  1  0
  9 11  1  0
 11 12  1  0
 11 13  2  0
  4 14  1  0
 14 15  1  0
 15 16  2  0
 16 17  1  0
 17 18  1  0
 17 19  2  0
 19 20  1  0
 20 21  1  0
 20 22  2  0
 22  2  1  0
 13  5  1  0
 22 15  1  0
M  END
>  <shape_align_shape_tanimoto>  (2) 
0.38484568951981535

>  <shape_align_color_tanimoto>  (2) 
0.14405427231569878

>  <metric>  (2) 
color

>  <metric_score>  (2) 
0.144

>  <template_pid>  (2) 
2O65

>  <template_shape_score>  (2) 
0.385

>  <template_color_score>  (2) 
0.144

>  <template_combo_score>  (2) 
0.264

$$$$
2O65_combo_pose
     RDKit          3D

 22 24  0  0  0  0  0  0  0  0999 V2000
   -4.5087   -1.7374   17.8264 O   0  0  0  0  0  0  0  0  0  0  0  0
   -4.4180   -0.7744   18.6285 C   0  0  0  0  0  0  0  0  0  0  0  0
   -4.3041   -0.9322   19.9961 C   0  0  0  0  0  0  0  0  0  0  0  0
   -4.2062    0.1382   20.8539 C   0  0  0  0  0  0  0  0  0  0  0  0
   -4.0850    0.0127   22.2980 C   0  0  0  0  0  0  0  0  0  0  0  0
   -3.9945    1.1596   23.0485 C   0  0  0  0  0  0  0  0  0  0  0  0
   -3.8769    1.0710   24.4406 C   0  0  0  0  0  0  0  0  0  0  0  0
   -3.7893    2.2695   25.1441 O   0  0  0  0  0  0  0  0  0  0  0  0
   -3.8484   -0.1407   25.0937 C   0  0  0  0  0  0  0  0  0  0  0  0
   -3.7302   -0.2036   26.4872 O   0  0  0  0  0  0  0  0  0  0  0  0
   -3.9396   -1.2887   24.3363 C   0  0  0  0  0  0  0  0  0  0  0  0
   -3.9123   -2.5314   24.9826 O   0  0  0  0  0  0  0  0  0  0  0  0
   -4.0553   -1.1923   22.9625 C   0  0  0  0  0  0  0  0  0  0  0  0
   -4.2223    1.3479   20.3466 O   0  0  0  0  0  0  0  0  0  0  0  0
   -4.3288    1.5656   19.0484 C   0  0  0  0  0  0  0  0  0  0  0  0
   -4.3326    2.8966   18.6520 C   0  0  0  0  0  0  0  0  0  0  0  0
   -4.4442    3.1589   17.2837 C   0  0  0  0  0  0  0  0  0  0  0  0
   -4.4554    4.4575   16.8100 O   0  0  0  0  0  0  0  0  0  0  0  0
   -4.5471    2.1318   16.3571 C   0  0  0  0  0  0  0  0  0  0  0  0
   -4.5385    0.8231   16.8034 C   0  0  0  0  0  0  0  0  0  0  0  0
   -4.6399   -0.2157   15.8969 O   0  0  0  0  0  0  0  0  0  0  0  0
   -4.4300    0.5232   18.1456 C   0  0  0  0  0  0  0  0  0  0  0  0
  1  2  2  0
  2  3  1  0
  3  4  2  0
  4  5  1  0
  5  6  2  0
  6  7  1  0
  7  8  1  0
  7  9  2  0
  9 10  1  0
  9 11  1  0
 11 12  1  0
 11 13  2  0
  4 14  1  0
 14 15  1  0
 15 16  2  0
 16 17  1  0
 17 18  1  0
 17 19  2  0
 19 20  1  0
 20 21  1  0
 20 22  2  0
 22  2  1  0
 13  5  1  0
 22 15  1  0
M  END
>  <shape_align_shape_tanimoto>  (3) 
0.38484568951981535

>  <shape_align_color_tanimoto>  (3) 
0.14405427231569878

>  <metric>  (3) 
combo

>  <metric_score>  (3) 
0.264

>  <template_pid>  (3) 
2O65

>  <template_shape_score>  (3) 
0.385

>  <template_color_score>  (3) 
0.144

>  <template_combo_score>  (3) 
0.264

$$$$
