2QO8_shape_pose
     RDKit          3D

 23 24  0  0  0  0  0  0  0  0999 V2000
   -2.9405   -1.9808   17.0450 C   0  0  0  0  0  0  0  0  0  0  0  0
   -4.0025   -0.9529   16.6003 C   0  0  0  0  0  0  0  0  0  0  0  0
   -4.7802   -0.4872   17.7865 C   0  0  0  0  0  0  0  0  0  0  0  0
   -5.8733    0.4956   17.5385 C   0  0  0  0  0  0  0  0  0  0  0  0
   -6.8944   -0.1228   16.6001 C   0  0  0  0  0  0  0  0  0  0  0  0
   -8.0338    0.8463   16.3200 C   0  0  0  0  0  0  0  0  0  0  0  0
   -8.7022    1.1855   17.6343 C   0  0  0  0  0  0  0  0  0  0  0  0
   -5.4281    1.8117   17.0817 C   0  0  0  0  0  0  0  0  0  0  0  0
   -5.5062    2.8294   17.8609 O   0  0  0  0  0  0  0  0  0  0  0  0
   -4.8929    2.0937   15.7947 N   0  0  0  0  0  0  0  0  0  0  0  0
   -4.4887    3.4385   15.4793 C   0  0  2  0  0  0  0  0  0  0  0  0
   -5.1502    4.0145   14.2559 C   0  0  0  0  0  0  0  0  0  0  0  0
   -4.2830    5.2075   14.0094 C   0  0  0  0  0  0  0  0  0  0  0  0
   -4.5997    6.4254   13.4444 C   0  0  0  0  0  0  0  0  0  0  0  0
   -3.5594    7.3517   13.3486 C   0  0  0  0  0  0  0  0  0  0  0  0
   -2.2830    7.0634   13.7953 C   0  0  0  0  0  0  0  0  0  0  0  0
   -1.0469    8.3070   13.6249 S   0  0  0  0  0  0  0  0  0  0  0  0
   -1.0649    9.2722   15.0673 N   0  0  0  0  0  0  0  0  0  0  0  0
    0.3184    7.6986   13.5100 O   0  0  0  0  0  0  0  0  0  0  0  0
   -1.3885    9.1207   12.4086 O   0  0  0  0  0  0  0  0  0  0  0  0
   -1.9921    5.8342   14.3580 C   0  0  0  0  0  0  0  0  0  0  0  0
   -3.0201    4.8889   14.4646 C   0  0  0  0  0  0  0  0  0  0  0  0
   -3.0281    3.4870   15.0179 C   0  0  0  0  0  0  0  0  0  0  0  0
  1  2  1  0
  2  3  1  0
  3  4  1  0
  4  5  1  0
  5  6  1  0
  6  7  1  0
  4  8  1  0
  8  9  2  0
  8 10  1  0
 11 10  1  6
 11 12  1  0
 12 13  1  0
 13 14  2  0
 14 15  1  0
 15 16  2  0
 16 17  1  0
 17 18  1  0
 17 19  2  0
 17 20  2  0
 16 21  1  0
 21 22  2  0
 22 23  1  0
 23 11  1  0
 22 13  1  0
M  END
>  <shape_align_shape_tanimoto>  (1) 
0.69063603167423204

>  <shape_align_color_tanimoto>  (1) 
0.078837240711033513

>  <metric>  (1) 
shape

>  <metric_score>  (1) 
0.691

>  <template_pid>  (1) 
2QO8

>  <template_shape_score>  (1) 
0.691

>  <template_color_score>  (1) 
0.079

>  <template_combo_score>  (1) 
0.385

$$$$
2QO8_color_pose
     RDKit          3D

 23 24  0  0  0  0  0  0  0  0999 V2000
   -5.5683   -2.4543   15.2391 C   0  0  0  0  0  0  0  0  0  0  0  0
   -6.0127   -1.4162   16.2780 C   0  0  0  0  0  0  0  0  0  0  0  0
   -5.5613   -0.0531   15.9130 C   0  0  0  0  0  0  0  0  0  0  0  0
   -5.9390    1.0513   16.7988 C   0  0  0  0  0  0  0  0  0  0  0  0
   -5.4997    1.1293   18.1975 C   0  0  0  0  0  0  0  0  0  0  0  0
   -5.8656    0.0582   19.1659 C   0  0  0  0  0  0  0  0  0  0  0  0
   -7.3460   -0.1886   19.2973 C   0  0  0  0  0  0  0  0  0  0  0  0
   -5.6366    2.3934   16.1365 C   0  0  0  0  0  0  0  0  0  0  0  0
   -6.5346    3.2335   15.9149 O   0  0  0  0  0  0  0  0  0  0  0  0
   -4.2898    2.6671   15.7733 N   0  0  0  0  0  0  0  0  0  0  0  0
   -3.9762    3.9212   15.1489 C   0  0  2  0  0  0  0  0  0  0  0  0
   -3.2886    3.7571   13.8054 C   0  0  0  0  0  0  0  0  0  0  0  0
   -2.9487    5.2025   13.5484 C   0  0  0  0  0  0  0  0  0  0  0  0
   -2.8464    5.9630   12.3980 C   0  0  0  0  0  0  0  0  0  0  0  0
   -2.5069    7.2992   12.4951 C   0  0  0  0  0  0  0  0  0  0  0  0
   -2.2719    7.8669   13.7410 C   0  0  0  0  0  0  0  0  0  0  0  0
   -1.8449    9.5618   13.8166 S   0  0  0  0  0  0  0  0  0  0  0  0
   -3.2689   10.5299   13.9605 N   0  0  0  0  0  0  0  0  0  0  0  0
   -0.8726    9.8527   14.9041 O   0  0  0  0  0  0  0  0  0  0  0  0
   -1.1802   10.0146   12.5287 O   0  0  0  0  0  0  0  0  0  0  0  0
   -2.3671    7.1310   14.9052 C   0  0  0  0  0  0  0  0  0  0  0  0
   -2.7108    5.7790   14.8031 C   0  0  0  0  0  0  0  0  0  0  0  0
   -2.8961    4.7145   15.8556 C   0  0  0  0  0  0  0  0  0  0  0  0
  1  2  1  0
  2  3  1  0
  3  4  1  0
  4  5  1  0
  5  6  1  0
  6  7  1  0
  4  8  1  0
  8  9  2  0
  8 10  1  0
 11 10  1  1
 11 12  1  0
 12 13  1  0
 13 14  2  0
 14 15  1  0
 15 16  2  0
 16 17  1  0
 17 18  1  0
 17 19  2  0
 17 20  2  0
 16 21  1  0
 21 22  2  0
 22 23  1  0
 23 11  1  0
 22 13  1  0
M  END
>  <shape_align_shape_tanimoto>  (2) 
0.62637310063520335

>  <shape_align_color_tanimoto>  (2) 
0.14101619871009644

>  <metric>  (2) 
color

>  <metric_score>  (2) 
0.141

>  <template_pid>  (2) 
2QO8

>  <template_shape_score>  (2) 
0.626

>  <template_color_score>  (2) 
0.141

>  <template_combo_score>  (2) 
0.384

$$$$
2QO8_combo_pose
     RDKit          3D

 23 24  0  0  0  0  0  0  0  0999 V2000
   -6.7450   -0.3579   20.9101 C   0  0  0  0  0  0  0  0  0  0  0  0
   -6.2998   -0.6581   19.4781 C   0  0  0  0  0  0  0  0  0  0  0  0
   -5.9003    0.6523   18.8838 C   0  0  0  0  0  0  0  0  0  0  0  0
   -5.4235    0.5649   17.4526 C   0  0  0  0  0  0  0  0  0  0  0  0
   -6.4944    0.0090   16.5438 C   0  0  0  0  0  0  0  0  0  0  0  0
   -7.7345    0.8379   16.5278 C   0  0  0  0  0  0  0  0  0  0  0  0
   -8.7346    0.2032   15.5978 C   0  0  0  0  0  0  0  0  0  0  0  0
   -5.0064    1.9297   17.0393 C   0  0  0  0  0  0  0  0  0  0  0  0
   -5.1079    2.8673   17.8784 O   0  0  0  0  0  0  0  0  0  0  0  0
   -4.5110    2.1965   15.7604 N   0  0  0  0  0  0  0  0  0  0  0  0
   -4.1216    3.5328   15.4105 C   0  0  2  0  0  0  0  0  0  0  0  0
   -4.8913    4.0558   14.1961 C   0  0  0  0  0  0  0  0  0  0  0  0
   -4.1277    5.3090   13.9473 C   0  0  0  0  0  0  0  0  0  0  0  0
   -4.4792    6.5459   13.4350 C   0  0  0  0  0  0  0  0  0  0  0  0
   -3.5506    7.5670   13.3063 C   0  0  0  0  0  0  0  0  0  0  0  0
   -2.2485    7.3317   13.7017 C   0  0  0  0  0  0  0  0  0  0  0  0
   -1.0624    8.6133   13.5451 S   0  0  0  0  0  0  0  0  0  0  0  0
   -1.0546    9.5377   15.0067 N   0  0  0  0  0  0  0  0  0  0  0  0
    0.2971    8.0850   13.1950 O   0  0  0  0  0  0  0  0  0  0  0  0
   -1.4637    9.5791   12.4408 O   0  0  0  0  0  0  0  0  0  0  0  0
   -1.8976    6.0967   14.2131 C   0  0  0  0  0  0  0  0  0  0  0  0
   -2.8088    5.0618   14.3508 C   0  0  0  0  0  0  0  0  0  0  0  0
   -2.7193    3.6545   14.8587 C   0  0  0  0  0  0  0  0  0  0  0  0
  1  2  1  0
  2  3  1  0
  3  4  1  0
  4  5  1  0
  5  6  1  0
  6  7  1  0
  4  8  1  0
  8  9  2  0
  8 10  1  0
 11 10  1  6
 11 12  1  0
 12 13  1  0
 13 14  2  0
 14 15  1  0
 15 16  2  0
 16 17  1  0
 17 18  1  0
 17 19  2  0
 17 20  2  0
 16 21  1  0
 21 22  2  0
 22 23  1  0
 23 11  1  0
 22 13  1  0
M  END
>  <shape_align_shape_tanimoto>  (3) 
0.67811878269890513

>  <shape_align_color_tanimoto>  (3) 
0.094607595742604023

>  <metric>  (3) 
combo

>  <metric_score>  (3) 
0.386

>  <template_pid>  (3) 
2QO8

>  <template_shape_score>  (3) 
0.678

>  <template_color_score>  (3) 
0.095

>  <template_combo_score>  (3) 
0.386

$$$$
