2XYE_shape_pose
     RDKit          3D

 51 53  0  0  0  0  0  0  0  0999 V2000
   76.0914   56.8841   14.0180 C   0  0  0  0  0  0  0  0  0  0  0  0
   75.5746   55.6740   14.8011 N   0  0  0  0  0  0  0  0  0  0  0  0
   74.2094   55.1811   14.5233 C   0  0  0  0  0  0  0  0  0  0  0  0
   73.5129   55.8556   13.5884 O   0  0  0  0  0  0  0  0  0  0  0  0
   73.4996   53.9860   15.1871 C   0  0  1  0  0  0  0  0  0  0  0  0
   72.0187   54.0033   14.6924 N   0  0  0  0  0  0  0  0  0  0  0  0
   70.8855   53.9664   15.6898 C   0  0  0  0  0  0  0  0  0  0  0  0
   71.1815   53.9213   16.9944 O   0  0  0  0  0  0  0  0  0  0  0  0
   69.4034   53.9745   15.2926 C   0  0  1  0  0  0  0  0  0  0  0  0
   68.5903   54.0216   16.5484 O   0  0  0  0  0  0  0  0  0  0  0  0
   68.9153   55.1561   14.3957 C   0  0  0  0  0  0  0  0  0  0  0  0
   69.0547   56.5963   14.9772 C   0  0  0  0  0  0  0  0  0  0  0  0
   70.4830   57.1221   15.2866 C   0  0  0  0  0  0  0  0  0  0  0  0
   70.5192   58.5656   15.8269 N   0  0  2  0  0  0  0  0  0  0  0  0
   71.8136   59.2395   15.3751 C   0  0  0  0  0  0  0  0  0  0  0  0
   72.7147   59.6368   16.5910 C   0  0  0  0  0  0  0  0  0  0  0  0
   72.5861   60.9492   17.2327 C   0  0  0  0  0  0  0  0  0  0  0  0
   73.4037   61.3468   18.3580 C   0  0  0  0  0  0  0  0  0  0  0  0
   74.3918   60.4048   18.8709 C   0  0  0  0  0  0  0  0  0  0  0  0
   75.2916   60.7692   20.0651 C   0  0  0  0  0  0  0  0  0  0  0  0
   74.7098   61.6663   21.0722 C   0  0  0  0  0  0  0  0  0  0  0  0
   75.4771   62.0765   22.2468 C   0  0  0  0  0  0  0  0  0  0  0  0
   76.8441   61.5866   22.4220 C   0  0  0  0  0  0  0  0  0  0  0  0
   77.3795   60.7028   21.4036 C   0  0  0  0  0  0  0  0  0  0  0  0
   76.6349   60.2876   20.2368 C   0  0  0  0  0  0  0  0  0  0  0  0
   74.5346   59.0952   18.2463 C   0  0  0  0  0  0  0  0  0  0  0  0
   73.7075   58.6989   17.1114 C   0  0  0  0  0  0  0  0  0  0  0  0
   70.3172   58.6595   17.2674 N   0  0  0  0  0  0  0  0  0  0  0  0
   69.0378   58.9193   17.9620 C   0  0  0  0  0  0  0  0  0  0  0  0
   67.9211   59.1020   17.2210 O   0  0  0  0  0  0  0  0  0  0  0  0
   68.8372   59.0073   19.4985 C   0  0  1  0  0  0  0  0  0  0  0  0
   67.3291   59.3419   19.6864 N   0  0  0  0  0  0  0  0  0  0  0  0
   66.9406   60.6280   20.3375 C   0  0  0  0  0  0  0  0  0  0  0  0
   67.8768   61.4585   20.7421 O   0  0  0  0  0  0  0  0  0  0  0  0
   65.5516   61.0263   20.5559 O   0  0  0  0  0  0  0  0  0  0  0  0
   65.1984   62.3314   21.2157 C   0  0  0  0  0  0  0  0  0  0  0  0
   69.1520   57.7156   20.3246 C   0  0  0  0  0  0  0  0  0  0  0  0
   68.8364   58.1321   21.8637 C   0  0  0  0  0  0  0  0  0  0  0  0
   70.6980   57.3388   20.3222 C   0  0  0  0  0  0  0  0  0  0  0  0
   68.2211   56.4894   19.9948 C   0  0  0  0  0  0  0  0  0  0  0  0
   69.0027   52.5448   14.6517 C   0  0  0  0  0  0  0  0  0  0  0  0
   67.5174   52.4703   14.2219 C   0  0  0  0  0  0  0  0  0  0  0  0
   67.0142   52.8096   12.9081 C   0  0  0  0  0  0  0  0  0  0  0  0
   65.6214   52.7306   12.5329 C   0  0  0  0  0  0  0  0  0  0  0  0
   64.6314   52.2886   13.5027 C   0  0  0  0  0  0  0  0  0  0  0  0
   65.0984   51.9352   14.8452 C   0  0  0  0  0  0  0  0  0  0  0  0
   66.5110   52.0233   15.2004 C   0  0  0  0  0  0  0  0  0  0  0  0
   74.1343   52.5995   14.6775 C   0  0  0  0  0  0  0  0  0  0  0  0
   73.9959   52.4636   13.1002 C   0  0  0  0  0  0  0  0  0  0  0  0
   73.3166   51.4154   15.3979 C   0  0  0  0  0  0  0  0  0  0  0  0
   75.6452   52.4547   15.0954 C   0  0  0  0  0  0  0  0  0  0  0  0
  1  2  1  0
  2  3  1  0
  3  4  2  0
  3  5  1  0
  5  6  1  6
  6  7  1  0
  7  8  2  0
  7  9  1  0
  9 10  1  1
  9 11  1  0
 11 12  1  0
 12 13  1  0
 14 13  1  1
 14 15  1  0
 15 16  1  0
 16 17  2  0
 17 18  1  0
 18 19  2  0
 19 20  1  0
 20 21  2  0
 21 22  1  0
 22 23  2  0
 23 24  1  0
 24 25  2  0
 19 26  1  0
 26 27  2  0
 14 28  1  0
 28 29  1  0
 29 30  2  0
 29 31  1  0
 31 32  1  6
 32 33  1  0
 33 34  2  0
 33 35  1  0
 35 36  1  0
 31 37  1  0
 37 38  1  0
 37 39  1  0
 37 40  1  0
  9 41  1  0
 41 42  1  0
 42 43  2  0
 43 44  1  0
 44 45  2  0
 45 46  1  0
 46 47  2  0
  5 48  1  0
 48 49  1  0
 48 50  1  0
 48 51  1  0
 27 16  1  0
 47 42  1  0
 25 20  1  0
M  CHG  1  14   1
M  END
>  <shape_align_shape_tanimoto>  (1) 
0.54653297245303956

>  <shape_align_color_tanimoto>  (1) 
0.018766494532974385

>  <metric>  (1) 
shape

>  <metric_score>  (1) 
0.547

>  <template_pid>  (1) 
2XYE

>  <template_shape_score>  (1) 
0.547

>  <template_color_score>  (1) 
0.019

>  <template_combo_score>  (1) 
0.283

$$$$
2XYE_color_pose
     RDKit          3D

 51 53  0  0  0  0  0  0  0  0999 V2000
   68.3347   57.6131   23.7724 C   0  0  0  0  0  0  0  0  0  0  0  0
   68.5778   57.9933   22.3963 N   0  0  0  0  0  0  0  0  0  0  0  0
   67.4901   58.2948   21.4969 C   0  0  0  0  0  0  0  0  0  0  0  0
   66.3139   58.2202   21.9319 O   0  0  0  0  0  0  0  0  0  0  0  0
   67.8464   58.6747   20.1132 C   0  0  1  0  0  0  0  0  0  0  0  0
   69.2778   58.6644   19.8985 N   0  0  0  0  0  0  0  0  0  0  0  0
   70.0138   59.7871   19.4342 C   0  0  0  0  0  0  0  0  0  0  0  0
   69.3703   60.8469   19.1844 O   0  0  0  0  0  0  0  0  0  0  0  0
   71.4798   59.7890   19.2308 C   0  0  1  0  0  0  0  0  0  0  0  0
   72.0037   58.5261   19.6202 O   0  0  0  0  0  0  0  0  0  0  0  0
   71.9489   60.0541   17.8531 C   0  0  0  0  0  0  0  0  0  0  0  0
   71.5065   59.0670   16.8011 C   0  0  0  0  0  0  0  0  0  0  0  0
   72.1000   59.5124   15.4609 C   0  0  0  0  0  0  0  0  0  0  0  0
   71.7909   58.6434   14.3730 N   0  0  2  0  0  0  0  0  0  0  0  0
   70.9833   59.1921   13.3308 C   0  0  0  0  0  0  0  0  0  0  0  0
   70.4530   60.5457   13.5753 C   0  0  0  0  0  0  0  0  0  0  0  0
   69.2174   60.6480   14.1810 C   0  0  0  0  0  0  0  0  0  0  0  0
   68.6588   61.8834   14.4299 C   0  0  0  0  0  0  0  0  0  0  0  0
   69.3712   63.0033   14.0562 C   0  0  0  0  0  0  0  0  0  0  0  0
   68.7936   64.3194   14.3047 C   0  0  0  0  0  0  0  0  0  0  0  0
   67.4092   64.4021   14.2399 C   0  0  0  0  0  0  0  0  0  0  0  0
   66.7809   65.6094   14.4617 C   0  0  0  0  0  0  0  0  0  0  0  0
   67.5328   66.7362   14.7487 C   0  0  0  0  0  0  0  0  0  0  0  0
   68.9151   66.6478   14.8122 C   0  0  0  0  0  0  0  0  0  0  0  0
   69.5479   65.4369   14.5897 C   0  0  0  0  0  0  0  0  0  0  0  0
   70.6053   62.9237   13.4512 C   0  0  0  0  0  0  0  0  0  0  0  0
   71.1745   61.6874   13.1971 C   0  0  0  0  0  0  0  0  0  0  0  0
   71.2495   57.3965   14.7605 N   0  0  0  0  0  0  0  0  0  0  0  0
   72.1365   56.3378   15.0621 C   0  0  0  0  0  0  0  0  0  0  0  0
   73.3856   56.6228   14.9629 O   0  0  0  0  0  0  0  0  0  0  0  0
   71.7961   54.9858   15.4653 C   0  0  1  0  0  0  0  0  0  0  0  0
   70.3762   54.7175   15.4746 N   0  0  0  0  0  0  0  0  0  0  0  0
   69.6715   54.2127   16.6041 C   0  0  0  0  0  0  0  0  0  0  0  0
   70.2175   53.9559   17.7053 O   0  0  0  0  0  0  0  0  0  0  0  0
   68.2966   54.0088   16.4187 O   0  0  0  0  0  0  0  0  0  0  0  0
   67.4498   53.5053   17.4345 C   0  0  0  0  0  0  0  0  0  0  0  0
   72.4971   53.9207   14.6462 C   0  0  0  0  0  0  0  0  0  0  0  0
   74.0102   54.0768   14.7913 C   0  0  0  0  0  0  0  0  0  0  0  0
   72.1446   52.5399   15.1492 C   0  0  0  0  0  0  0  0  0  0  0  0
   72.1750   53.9870   13.1838 C   0  0  0  0  0  0  0  0  0  0  0  0
   72.1530   60.7949   20.1555 C   0  0  0  0  0  0  0  0  0  0  0  0
   73.6081   60.8569   20.0116 C   0  0  0  0  0  0  0  0  0  0  0  0
   74.2083   61.7356   19.1174 C   0  0  0  0  0  0  0  0  0  0  0  0
   75.5880   61.8029   18.9695 C   0  0  0  0  0  0  0  0  0  0  0  0
   76.4335   60.9832   19.7198 C   0  0  0  0  0  0  0  0  0  0  0  0
   75.8348   60.1080   20.6105 C   0  0  0  0  0  0  0  0  0  0  0  0
   74.4566   60.0360   20.7630 C   0  0  0  0  0  0  0  0  0  0  0  0
   67.0641   57.8169   19.1652 C   0  0  0  0  0  0  0  0  0  0  0  0
   65.5839   58.0706   19.4517 C   0  0  0  0  0  0  0  0  0  0  0  0
   67.3088   56.3517   19.2866 C   0  0  0  0  0  0  0  0  0  0  0  0
   67.2576   58.2217   17.7194 C   0  0  0  0  0  0  0  0  0  0  0  0
  1  2  1  0
  2  3  1  0
  3  4  2  0
  3  5  1  0
  5  6  1  1
  6  7  1  0
  7  8  2  0
  7  9  1  0
  9 10  1  1
  9 11  1  0
 11 12  1  0
 12 13  1  0
 14 13  1  1
 14 15  1  0
 15 16  1  0
 16 17  2  0
 17 18  1  0
 18 19  2  0
 19 20  1  0
 20 21  2  0
 21 22  1  0
 22 23  2  0
 23 24  1  0
 24 25  2  0
 19 26  1  0
 26 27  2  0
 14 28  1  0
 28 29  1  0
 29 30  2  0
 29 31  1  0
 31 32  1  6
 32 33  1  0
 33 34  2  0
 33 35  1  0
 35 36  1  0
 31 37  1  0
 37 38  1  0
 37 39  1  0
 37 40  1  0
  9 41  1  0
 41 42  1  0
 42 43  2  0
 43 44  1  0
 44 45  2  0
 45 46  1  0
 46 47  2  0
  5 48  1  0
 48 49  1  0
 48 50  1  0
 48 51  1  0
 27 16  1  0
 47 42  1  0
 25 20  1  0
M  CHG  1  14   1
M  END
>  <shape_align_shape_tanimoto>  (2) 
0.34849951780367033

>  <shape_align_color_tanimoto>  (2) 
0.11742619400510892

>  <metric>  (2) 
color

>  <metric_score>  (2) 
0.117

>  <template_pid>  (2) 
2XYE

>  <template_shape_score>  (2) 
0.348

>  <template_color_score>  (2) 
0.117

>  <template_combo_score>  (2) 
0.233

$$$$
2XYE_combo_pose
     RDKit          3D

 51 53  0  0  0  0  0  0  0  0999 V2000
   76.0914   56.8841   14.0180 C   0  0  0  0  0  0  0  0  0  0  0  0
   75.5746   55.6740   14.8011 N   0  0  0  0  0  0  0  0  0  0  0  0
   74.2094   55.1811   14.5233 C   0  0  0  0  0  0  0  0  0  0  0  0
   73.5129   55.8556   13.5884 O   0  0  0  0  0  0  0  0  0  0  0  0
   73.4996   53.9860   15.1871 C   0  0  1  0  0  0  0  0  0  0  0  0
   72.0187   54.0033   14.6924 N   0  0  0  0  0  0  0  0  0  0  0  0
   70.8855   53.9664   15.6898 C   0  0  0  0  0  0  0  0  0  0  0  0
   71.1815   53.9213   16.9944 O   0  0  0  0  0  0  0  0  0  0  0  0
   69.4034   53.9745   15.2926 C   0  0  1  0  0  0  0  0  0  0  0  0
   68.5903   54.0216   16.5484 O   0  0  0  0  0  0  0  0  0  0  0  0
   68.9153   55.1561   14.3957 C   0  0  0  0  0  0  0  0  0  0  0  0
   69.0547   56.5963   14.9772 C   0  0  0  0  0  0  0  0  0  0  0  0
   70.4830   57.1221   15.2866 C   0  0  0  0  0  0  0  0  0  0  0  0
   70.5192   58.5656   15.8269 N   0  0  2  0  0  0  0  0  0  0  0  0
   71.8136   59.2395   15.3751 C   0  0  0  0  0  0  0  0  0  0  0  0
   72.7147   59.6368   16.5910 C   0  0  0  0  0  0  0  0  0  0  0  0
   72.5861   60.9492   17.2327 C   0  0  0  0  0  0  0  0  0  0  0  0
   73.4037   61.3468   18.3580 C   0  0  0  0  0  0  0  0  0  0  0  0
   74.3918   60.4048   18.8709 C   0  0  0  0  0  0  0  0  0  0  0  0
   75.2916   60.7692   20.0651 C   0  0  0  0  0  0  0  0  0  0  0  0
   74.7098   61.6663   21.0722 C   0  0  0  0  0  0  0  0  0  0  0  0
   75.4771   62.0765   22.2468 C   0  0  0  0  0  0  0  0  0  0  0  0
   76.8441   61.5866   22.4220 C   0  0  0  0  0  0  0  0  0  0  0  0
   77.3795   60.7028   21.4036 C   0  0  0  0  0  0  0  0  0  0  0  0
   76.6349   60.2876   20.2368 C   0  0  0  0  0  0  0  0  0  0  0  0
   74.5346   59.0952   18.2463 C   0  0  0  0  0  0  0  0  0  0  0  0
   73.7075   58.6989   17.1114 C   0  0  0  0  0  0  0  0  0  0  0  0
   70.3172   58.6595   17.2674 N   0  0  0  0  0  0  0  0  0  0  0  0
   69.0378   58.9193   17.9620 C   0  0  0  0  0  0  0  0  0  0  0  0
   67.9211   59.1020   17.2210 O   0  0  0  0  0  0  0  0  0  0  0  0
   68.8372   59.0073   19.4985 C   0  0  1  0  0  0  0  0  0  0  0  0
   67.3291   59.3419   19.6864 N   0  0  0  0  0  0  0  0  0  0  0  0
   66.9406   60.6280   20.3375 C   0  0  0  0  0  0  0  0  0  0  0  0
   67.8768   61.4585   20.7421 O   0  0  0  0  0  0  0  0  0  0  0  0
   65.5516   61.0263   20.5559 O   0  0  0  0  0  0  0  0  0  0  0  0
   65.1984   62.3314   21.2157 C   0  0  0  0  0  0  0  0  0  0  0  0
   69.1520   57.7156   20.3246 C   0  0  0  0  0  0  0  0  0  0  0  0
   68.8364   58.1321   21.8637 C   0  0  0  0  0  0  0  0  0  0  0  0
   70.6980   57.3388   20.3222 C   0  0  0  0  0  0  0  0  0  0  0  0
   68.2211   56.4894   19.9948 C   0  0  0  0  0  0  0  0  0  0  0  0
   69.0027   52.5448   14.6517 C   0  0  0  0  0  0  0  0  0  0  0  0
   67.5174   52.4703   14.2219 C   0  0  0  0  0  0  0  0  0  0  0  0
   67.0142   52.8096   12.9081 C   0  0  0  0  0  0  0  0  0  0  0  0
   65.6214   52.7306   12.5329 C   0  0  0  0  0  0  0  0  0  0  0  0
   64.6314   52.2886   13.5027 C   0  0  0  0  0  0  0  0  0  0  0  0
   65.0984   51.9352   14.8452 C   0  0  0  0  0  0  0  0  0  0  0  0
   66.5110   52.0233   15.2004 C   0  0  0  0  0  0  0  0  0  0  0  0
   74.1343   52.5995   14.6775 C   0  0  0  0  0  0  0  0  0  0  0  0
   73.9959   52.4636   13.1002 C   0  0  0  0  0  0  0  0  0  0  0  0
   73.3166   51.4154   15.3979 C   0  0  0  0  0  0  0  0  0  0  0  0
   75.6452   52.4547   15.0954 C   0  0  0  0  0  0  0  0  0  0  0  0
  1  2  1  0
  2  3  1  0
  3  4  2  0
  3  5  1  0
  5  6  1  6
  6  7  1  0
  7  8  2  0
  7  9  1  0
  9 10  1  1
  9 11  1  0
 11 12  1  0
 12 13  1  0
 14 13  1  1
 14 15  1  0
 15 16  1  0
 16 17  2  0
 17 18  1  0
 18 19  2  0
 19 20  1  0
 20 21  2  0
 21 22  1  0
 22 23  2  0
 23 24  1  0
 24 25  2  0
 19 26  1  0
 26 27  2  0
 14 28  1  0
 28 29  1  0
 29 30  2  0
 29 31  1  0
 31 32  1  6
 32 33  1  0
 33 34  2  0
 33 35  1  0
 35 36  1  0
 31 37  1  0
 37 38  1  0
 37 39  1  0
 37 40  1  0
  9 41  1  0
 41 42  1  0
 42 43  2  0
 43 44  1  0
 44 45  2  0
 45 46  1  0
 46 47  2  0
  5 48  1  0
 48 49  1  0
 48 50  1  0
 48 51  1  0
 27 16  1  0
 47 42  1  0
 25 20  1  0
M  CHG  1  14   1
M  END
>  <shape_align_shape_tanimoto>  (3) 
0.54653297245303956

>  <shape_align_color_tanimoto>  (3) 
0.018766494532974385

>  <metric>  (3) 
combo

>  <metric_score>  (3) 
0.283

>  <template_pid>  (3) 
2XYE

>  <template_shape_score>  (3) 
0.547

>  <template_color_score>  (3) 
0.019

>  <template_combo_score>  (3) 
0.283

$$$$
