2ZV9_shape_pose
     RDKit          3D

 21 23  0  0  0  0  0  0  0  0999 V2000
  -10.0326    4.5092   53.7781 C   0  0  0  0  0  0  0  0  0  0  0  0
   -8.6315    4.9243   53.4038 C   0  0  0  0  0  0  0  0  0  0  0  0
   -7.9494    5.4541   54.6470 C   0  0  0  0  0  0  0  0  0  0  0  0
   -7.8545    3.7863   52.7842 C   0  0  0  0  0  0  0  0  0  0  0  0
   -8.7345    6.0283   52.4620 N   0  0  0  0  0  0  0  0  0  0  0  0
   -9.0787    7.2567   52.8196 N   0  0  0  0  0  0  0  0  0  0  0  0
   -9.0929    8.0800   51.7298 C   0  0  0  0  0  0  0  0  0  0  0  0
   -9.4152    9.4908   51.7818 C   0  0  0  0  0  0  0  0  0  0  0  0
  -10.3311   10.1208   50.9760 C   0  0  0  0  0  0  0  0  0  0  0  0
  -10.5923   11.4846   51.0475 C   0  0  0  0  0  0  0  0  0  0  0  0
   -9.9048   12.2259   51.9623 C   0  0  0  0  0  0  0  0  0  0  0  0
  -10.2083   13.9548   52.0821 Cl  0  0  0  0  0  0  0  0  0  0  0  0
   -8.9652   11.6176   52.7996 C   0  0  0  0  0  0  0  0  0  0  0  0
   -8.7103   10.2516   52.7205 C   0  0  0  0  0  0  0  0  0  0  0  0
   -8.7317    7.2661   50.6839 C   0  0  0  0  0  0  0  0  0  0  0  0
   -8.5607    7.5084   49.3524 C   0  0  0  0  0  0  0  0  0  0  0  0
   -8.7495    8.8026   48.8090 N   0  0  0  0  0  0  0  0  0  0  0  0
   -8.1891    6.5330   48.5099 N   0  0  0  0  0  0  0  0  0  0  0  0
   -7.9762    5.2842   48.9734 C   0  0  0  0  0  0  0  0  0  0  0  0
   -8.1285    4.9787   50.2899 N   0  0  0  0  0  0  0  0  0  0  0  0
   -8.5040    5.9737   51.1297 C   0  0  0  0  0  0  0  0  0  0  0  0
  1  2  1  0
  2  3  1  0
  2  4  1  0
  2  5  1  0
  5  6  1  0
  6  7  2  0
  7  8  1  0
  8  9  2  0
  9 10  1  0
 10 11  2  0
 11 12  1  0
 11 13  1  0
 13 14  2  0
  7 15  1  0
 15 16  2  0
 16 17  1  0
 16 18  1  0
 18 19  2  0
 19 20  1  0
 20 21  2  0
 21  5  1  0
 14  8  1  0
 21 15  1  0
M  END
>  <shape_align_shape_tanimoto>  (1) 
0.83505375948358107

>  <shape_align_color_tanimoto>  (1) 
0.12909963833099977

>  <metric>  (1) 
shape

>  <metric_score>  (1) 
0.835

>  <template_pid>  (1) 
2ZV9

>  <template_shape_score>  (1) 
0.835

>  <template_color_score>  (1) 
0.129

>  <template_combo_score>  (1) 
0.482

$$$$
2ZV9_color_pose
     RDKit          3D

 21 23  0  0  0  0  0  0  0  0999 V2000
   -7.0835    4.8859   49.1397 C   0  0  0  0  0  0  0  0  0  0  0  0
   -8.2812    5.7593   48.8589 C   0  0  0  0  0  0  0  0  0  0  0  0
   -7.9348    6.6681   47.6943 C   0  0  0  0  0  0  0  0  0  0  0  0
   -9.4878    4.9773   48.4552 C   0  0  0  0  0  0  0  0  0  0  0  0
   -8.5795    6.5979   50.0042 N   0  0  0  0  0  0  0  0  0  0  0  0
   -8.8738    7.8925   49.9769 N   0  0  0  0  0  0  0  0  0  0  0  0
   -9.0947    8.3466   51.2448 C   0  0  0  0  0  0  0  0  0  0  0  0
   -9.4508    9.7141   51.5543 C   0  0  0  0  0  0  0  0  0  0  0  0
   -8.8259   10.5000   52.4895 C   0  0  0  0  0  0  0  0  0  0  0  0
   -9.2177   11.8035   52.7681 C   0  0  0  0  0  0  0  0  0  0  0  0
  -10.2907   12.3223   52.0609 C   0  0  0  0  0  0  0  0  0  0  0  0
  -10.8860   13.9461   52.3124 Cl  0  0  0  0  0  0  0  0  0  0  0  0
  -10.9323   11.5313   51.1073 C   0  0  0  0  0  0  0  0  0  0  0  0
  -10.5331   10.2459   50.8445 C   0  0  0  0  0  0  0  0  0  0  0  0
   -8.9168    7.2456   52.0400 C   0  0  0  0  0  0  0  0  0  0  0  0
   -9.0120    7.0727   53.3956 C   0  0  0  0  0  0  0  0  0  0  0  0
   -9.3613    8.1481   54.2526 N   0  0  0  0  0  0  0  0  0  0  0  0
   -8.7974    5.8799   53.9607 N   0  0  0  0  0  0  0  0  0  0  0  0
   -8.4810    4.8096   53.2124 C   0  0  0  0  0  0  0  0  0  0  0  0
   -8.3898    4.9785   51.8941 N   0  0  0  0  0  0  0  0  0  0  0  0
   -8.5940    6.1459   51.2797 C   0  0  0  0  0  0  0  0  0  0  0  0
  1  2  1  0
  2  3  1  0
  2  4  1  0
  2  5  1  0
  5  6  1  0
  6  7  2  0
  7  8  1  0
  8  9  2  0
  9 10  1  0
 10 11  2  0
 11 12  1  0
 11 13  1  0
 13 14  2  0
  7 15  1  0
 15 16  2  0
 16 17  1  0
 16 18  1  0
 18 19  2  0
 19 20  1  0
 20 21  2  0
 21  5  1  0
 14  8  1  0
 21 15  1  0
M  END
>  <shape_align_shape_tanimoto>  (2) 
0.80425997538538796

>  <shape_align_color_tanimoto>  (2) 
0.15830106473602087

>  <metric>  (2) 
color

>  <metric_score>  (2) 
0.158

>  <template_pid>  (2) 
2ZV9

>  <template_shape_score>  (2) 
0.804

>  <template_color_score>  (2) 
0.158

>  <template_combo_score>  (2) 
0.481

$$$$
2ZV9_combo_pose
     RDKit          3D

 21 23  0  0  0  0  0  0  0  0999 V2000
   -9.3180    4.8607   48.4695 C   0  0  0  0  0  0  0  0  0  0  0  0
   -8.1838    5.7736   48.8835 C   0  0  0  0  0  0  0  0  0  0  0  0
   -6.9555    4.9565   49.1331 C   0  0  0  0  0  0  0  0  0  0  0  0
   -7.9375    6.7006   47.6948 C   0  0  0  0  0  0  0  0  0  0  0  0
   -8.5036    6.5894   50.0300 N   0  0  0  0  0  0  0  0  0  0  0  0
   -8.7623    7.8836   50.0456 N   0  0  0  0  0  0  0  0  0  0  0  0
   -9.0189    8.2898   51.3268 C   0  0  0  0  0  0  0  0  0  0  0  0
   -9.3451    9.6608   51.6355 C   0  0  0  0  0  0  0  0  0  0  0  0
  -10.3506   10.2953   50.8965 C   0  0  0  0  0  0  0  0  0  0  0  0
  -10.6964   11.6127   51.1253 C   0  0  0  0  0  0  0  0  0  0  0  0
  -10.0605   12.3609   52.0977 C   0  0  0  0  0  0  0  0  0  0  0  0
  -10.4654   14.0305   52.4221 Cl  0  0  0  0  0  0  0  0  0  0  0  0
   -9.0693   11.7552   52.8344 C   0  0  0  0  0  0  0  0  0  0  0  0
   -8.7318   10.4293   52.5929 C   0  0  0  0  0  0  0  0  0  0  0  0
   -8.9016    7.1693   52.0805 C   0  0  0  0  0  0  0  0  0  0  0  0
   -9.0576    6.9692   53.4334 C   0  0  0  0  0  0  0  0  0  0  0  0
   -9.4093    8.0352   54.2972 N   0  0  0  0  0  0  0  0  0  0  0  0
   -8.8923    5.7402   53.9546 N   0  0  0  0  0  0  0  0  0  0  0  0
   -8.5718    4.6875   53.1566 C   0  0  0  0  0  0  0  0  0  0  0  0
   -8.4108    4.8502   51.8117 N   0  0  0  0  0  0  0  0  0  0  0  0
   -8.5776    6.0835   51.2936 C   0  0  0  0  0  0  0  0  0  0  0  0
  1  2  1  0
  2  3  1  0
  2  4  1  0
  2  5  1  0
  5  6  1  0
  6  7  2  0
  7  8  1  0
  8  9  2  0
  9 10  1  0
 10 11  2  0
 11 12  1  0
 11 13  1  0
 13 14  2  0
  7 15  1  0
 15 16  2  0
 16 17  1  0
 16 18  1  0
 18 19  2  0
 19 20  1  0
 20 21  2  0
 21  5  1  0
 14  8  1  0
 21 15  1  0
M  END
>  <shape_align_shape_tanimoto>  (3) 
0.81194113876100049

>  <shape_align_color_tanimoto>  (3) 
0.15530500555428972

>  <metric>  (3) 
combo

>  <metric_score>  (3) 
0.484

>  <template_pid>  (3) 
2ZV9

>  <template_shape_score>  (3) 
0.812

>  <template_color_score>  (3) 
0.155

>  <template_combo_score>  (3) 
0.484

$$$$
