3FTU_shape_pose
     RDKit          3D

 17 18  0  0  0  0  0  0  0  0999 V2000
   10.6224   10.2648   20.2560 O   0  0  0  0  0  0  0  0  0  0  0  0
   11.2511   10.4324   19.0489 C   0  0  0  0  0  0  0  0  0  0  0  0
   10.6867   11.2531   18.0963 C   0  0  0  0  0  0  0  0  0  0  0  0
   11.3263   11.4152   16.8860 C   0  0  0  0  0  0  0  0  0  0  0  0
   12.5292   10.7725   16.5963 C   0  0  0  0  0  0  0  0  0  0  0  0
   13.1135   11.0272   15.2671 C   0  0  0  0  0  0  0  0  0  0  0  0
   12.6294   10.0248   14.2119 C   0  0  0  0  0  0  0  0  0  0  0  0
   13.3257   10.4438   12.9415 C   0  0  0  0  0  0  0  0  0  0  0  0
   12.6834   11.3558   12.1372 C   0  0  0  0  0  0  0  0  0  0  0  0
   13.2301   11.8067   10.9543 C   0  0  0  0  0  0  0  0  0  0  0  0
   12.5762   12.7298   10.1437 O   0  0  0  0  0  0  0  0  0  0  0  0
   14.4754   11.2939   10.6030 C   0  0  0  0  0  0  0  0  0  0  0  0
   15.1221   10.3790   11.4079 C   0  0  0  0  0  0  0  0  0  0  0  0
   16.3689    9.9026   10.9999 O   0  0  0  0  0  0  0  0  0  0  0  0
   14.5613    9.9341   12.5944 C   0  0  0  0  0  0  0  0  0  0  0  0
   13.0974    9.9501   17.5473 C   0  0  0  0  0  0  0  0  0  0  0  0
   12.4500    9.8008   18.7413 C   0  0  0  0  0  0  0  0  0  0  0  0
  1  2  1  0
  2  3  2  0
  3  4  1  0
  4  5  2  0
  5  6  1  0
  6  7  1  0
  7  8  1  0
  8  9  2  0
  9 10  1  0
 10 11  1  0
 10 12  2  0
 12 13  1  0
 13 14  1  0
 13 15  2  0
  5 16  1  0
 16 17  2  0
 17  2  1  0
 15  8  1  0
M  END
>  <shape_align_shape_tanimoto>  (1) 
0.68102731943562589

>  <shape_align_color_tanimoto>  (1) 
0.1813813612628063

>  <metric>  (1) 
shape

>  <metric_score>  (1) 
0.681

>  <template_pid>  (1) 
3FTU

>  <template_shape_score>  (1) 
0.681

>  <template_color_score>  (1) 
0.181

>  <template_combo_score>  (1) 
0.431

$$$$
3FTU_color_pose
     RDKit          3D

 17 18  0  0  0  0  0  0  0  0999 V2000
   10.6861   10.2075   19.9601 O   0  0  0  0  0  0  0  0  0  0  0  0
   11.3848   10.3991   18.7703 C   0  0  0  0  0  0  0  0  0  0  0  0
   12.3974    9.5149   18.3924 C   0  0  0  0  0  0  0  0  0  0  0  0
   13.0619    9.7475   17.2024 C   0  0  0  0  0  0  0  0  0  0  0  0
   12.7176   10.8380   16.4159 C   0  0  0  0  0  0  0  0  0  0  0  0
   13.4015   11.1345   15.1251 C   0  0  0  0  0  0  0  0  0  0  0  0
   12.6324   10.4104   14.0482 C   0  0  0  0  0  0  0  0  0  0  0  0
   13.2102   10.6209   12.6992 C   0  0  0  0  0  0  0  0  0  0  0  0
   12.7843   11.6807   11.9180 C   0  0  0  0  0  0  0  0  0  0  0  0
   13.3192   11.8697   10.6779 C   0  0  0  0  0  0  0  0  0  0  0  0
   12.8434   12.9620    9.9390 O   0  0  0  0  0  0  0  0  0  0  0  0
   14.2874   11.0410   10.1440 C   0  0  0  0  0  0  0  0  0  0  0  0
   14.7266    9.9698   10.9180 C   0  0  0  0  0  0  0  0  0  0  0  0
   15.7048    9.1280   10.3853 O   0  0  0  0  0  0  0  0  0  0  0  0
   14.1866    9.7745   12.1765 C   0  0  0  0  0  0  0  0  0  0  0  0
   11.7046   11.7167   16.8008 C   0  0  0  0  0  0  0  0  0  0  0  0
   11.0376   11.4859   17.9920 C   0  0  0  0  0  0  0  0  0  0  0  0
  1  2  1  0
  2  3  2  0
  3  4  1  0
  4  5  2  0
  5  6  1  0
  6  7  1  0
  7  8  1  0
  8  9  2  0
  9 10  1  0
 10 11  1  0
 10 12  2  0
 12 13  1  0
 13 14  1  0
 13 15  2  0
  5 16  1  0
 16 17  2  0
 17  2  1  0
 15  8  1  0
M  END
>  <shape_align_shape_tanimoto>  (2) 
0.64566455555855118

>  <shape_align_color_tanimoto>  (2) 
0.21857591395409814

>  <metric>  (2) 
color

>  <metric_score>  (2) 
0.219

>  <template_pid>  (2) 
3FTU

>  <template_shape_score>  (2) 
0.646

>  <template_color_score>  (2) 
0.219

>  <template_combo_score>  (2) 
0.432

$$$$
3FTU_combo_pose
     RDKit          3D

 17 18  0  0  0  0  0  0  0  0999 V2000
   10.5908   10.2206   20.1076 O   0  0  0  0  0  0  0  0  0  0  0  0
   11.2856   10.3943   18.8952 C   0  0  0  0  0  0  0  0  0  0  0  0
   10.7787   11.3322   18.0115 C   0  0  0  0  0  0  0  0  0  0  0  0
   11.4611   11.5040   16.8187 C   0  0  0  0  0  0  0  0  0  0  0  0
   12.6024   10.7675   16.5241 C   0  0  0  0  0  0  0  0  0  0  0  0
   13.2406   11.0483   15.2092 C   0  0  0  0  0  0  0  0  0  0  0  0
   12.6816   10.1577   14.1200 C   0  0  0  0  0  0  0  0  0  0  0  0
   13.3556   10.4827   12.8303 C   0  0  0  0  0  0  0  0  0  0  0  0
   12.7914   11.4550   12.0295 C   0  0  0  0  0  0  0  0  0  0  0  0
   13.3159   11.8441   10.8200 C   0  0  0  0  0  0  0  0  0  0  0  0
   12.6844   12.8403   10.0627 O   0  0  0  0  0  0  0  0  0  0  0  0
   14.4765   11.2273   10.3770 C   0  0  0  0  0  0  0  0  0  0  0  0
   15.0471   10.2541   11.1715 C   0  0  0  0  0  0  0  0  0  0  0  0
   16.2071    9.6404   10.7246 O   0  0  0  0  0  0  0  0  0  0  0  0
   14.4961    9.8768   12.3946 C   0  0  0  0  0  0  0  0  0  0  0  0
   13.0983    9.8349   17.4137 C   0  0  0  0  0  0  0  0  0  0  0  0
   12.4212    9.6501   18.6209 C   0  0  0  0  0  0  0  0  0  0  0  0
  1  2  1  0
  2  3  2  0
  3  4  1  0
  4  5  2  0
  5  6  1  0
  6  7  1  0
  7  8  1  0
  8  9  2  0
  9 10  1  0
 10 11  1  0
 10 12  2  0
 12 13  1  0
 13 14  1  0
 13 15  2  0
  5 16  1  0
 16 17  2  0
 17  2  1  0
 15  8  1  0
M  END
>  <shape_align_shape_tanimoto>  (3) 
0.6742826563477291

>  <shape_align_color_tanimoto>  (3) 
0.19718810939230449

>  <metric>  (3) 
combo

>  <metric_score>  (3) 
0.436

>  <template_pid>  (3) 
3FTU

>  <template_shape_score>  (3) 
0.674

>  <template_color_score>  (3) 
0.197

>  <template_combo_score>  (3) 
0.436

$$$$
