3IEJ_shape_pose
     RDKit          3D

 38 42  0  0  0  0  0  0  0  0999 V2000
    2.1038  -27.6821    5.2176 O   0  0  0  0  0  0  0  0  0  0  0  0
    1.1725  -27.4187    4.3784 C   0  0  0  0  0  0  0  0  0  0  0  0
    1.3940  -27.9187    3.0072 C   0  0  0  0  0  0  0  0  0  0  0  0
    0.3274  -27.5960    2.1834 O   0  0  0  0  0  0  0  0  0  0  0  0
    0.0205  -26.6901    4.7874 N   0  0  0  0  0  0  0  0  0  0  0  0
   -1.0681  -26.3534    3.8913 C   0  0  0  0  0  0  0  0  0  0  0  0
   -2.0884  -25.5274    4.6489 C   0  0  0  0  0  0  0  0  0  0  0  0
   -1.3944  -24.4181    5.3718 C   0  0  0  0  0  0  0  0  0  0  0  0
   -0.3247  -24.8258    6.1786 C   0  0  0  0  0  0  0  0  0  0  0  0
    0.1652  -23.6727    6.7412 C   0  0  0  0  0  0  0  0  0  0  0  0
    1.2996  -23.6446    7.6613 C   0  0  0  0  0  0  0  0  0  0  0  0
    2.3176  -22.7207    7.5442 C   0  0  0  0  0  0  0  0  0  0  0  0
    3.3390  -22.7880    8.4690 C   0  0  0  0  0  0  0  0  0  0  0  0
    3.3833  -23.7202    9.4831 C   0  0  0  0  0  0  0  0  0  0  0  0
    4.6969  -23.7667   10.6286 Cl  0  0  0  0  0  0  0  0  0  0  0  0
    2.3498  -24.6433    9.5865 C   0  0  0  0  0  0  0  0  0  0  0  0
    2.3262  -25.6459   10.6181 C   0  0  0  0  0  0  0  0  0  0  0  0
    2.2918  -26.4994   11.4747 C   0  0  0  0  0  0  0  0  0  0  0  0
    2.2327  -27.5324   12.4961 C   0  0  0  0  0  0  0  0  0  0  0  0
    3.1959  -28.5254   12.5774 C   0  0  0  0  0  0  0  0  0  0  0  0
    3.0968  -29.4875   13.5662 C   0  0  0  0  0  0  0  0  0  0  0  0
    2.0426  -29.4529   14.4630 C   0  0  0  0  0  0  0  0  0  0  0  0
    1.8998  -30.6686   15.7268 Cl  0  0  0  0  0  0  0  0  0  0  0  0
    1.0775  -28.4700   14.3927 C   0  0  0  0  0  0  0  0  0  0  0  0
    1.1637  -27.4903   13.3989 C   0  0  0  0  0  0  0  0  0  0  0  0
    1.3381  -24.5811    8.6753 C   0  0  0  0  0  0  0  0  0  0  0  0
   -0.5881  -22.6591    6.2776 N   0  0  0  0  0  0  0  0  0  0  0  0
   -1.5304  -23.0862    5.4535 N   0  0  0  0  0  0  0  0  0  0  0  0
   -2.5462  -22.3442    4.7368 C   0  0  0  0  0  0  0  0  0  0  0  0
   -3.8102  -22.2242    5.5674 C   0  0  0  0  0  0  0  0  0  0  0  0
   -3.4287  -21.5033    6.8184 C   0  0  0  0  0  0  0  0  0  0  0  0
   -4.5487  -21.3136    7.7178 N   0  0  0  0  0  0  0  0  0  0  0  0
   -4.1658  -20.7553    8.9766 C   0  0  0  0  0  0  0  0  0  0  0  0
   -5.4512  -20.2706    9.6499 C   0  0  0  0  0  0  0  0  0  0  0  0
   -6.4315  -21.2328    9.6134 O   0  0  0  0  0  0  0  0  0  0  0  0
   -5.9703  -22.5003    9.2746 C   0  0  0  0  0  0  0  0  0  0  0  0
   -5.3367  -22.4951    7.8995 C   0  0  0  0  0  0  0  0  0  0  0  0
   -0.0415  -26.2719    6.1987 C   0  0  0  0  0  0  0  0  0  0  0  0
  1  2  2  0
  2  3  1  0
  3  4  1  0
  2  5  1  0
  5  6  1  0
  6  7  1  0
  7  8  1  0
  8  9  2  0
  9 10  1  0
 10 11  1  0
 11 12  2  0
 12 13  1  0
 13 14  2  0
 14 15  1  0
 14 16  1  0
 16 17  1  0
 17 18  3  0
 18 19  1  0
 19 20  2  0
 20 21  1  0
 21 22  2  0
 22 23  1  0
 22 24  1  0
 24 25  2  0
 16 26  2  0
 10 27  2  0
 27 28  1  0
 28 29  1  0
 29 30  1  0
 30 31  1  0
 31 32  1  0
 32 33  1  0
 33 34  1  0
 34 35  1  0
 35 36  1  0
 36 37  1  0
  9 38  1  0
 38  5  1  0
 28  8  1  0
 37 32  1  0
 26 11  1  0
 25 19  1  0
M  CHG  1  32   1
M  END
>  <shape_align_shape_tanimoto>  (1) 
0.81539712651180285

>  <shape_align_color_tanimoto>  (1) 
0.029999783270204458

>  <metric>  (1) 
shape

>  <metric_score>  (1) 
0.815

>  <template_pid>  (1) 
3IEJ

>  <template_shape_score>  (1) 
0.815

>  <template_color_score>  (1) 
0.030

>  <template_combo_score>  (1) 
0.423

$$$$
3IEJ_color_pose
     RDKit          3D

 38 42  0  0  0  0  0  0  0  0999 V2000
    1.0158  -26.8892    2.1070 O   0  0  0  0  0  0  0  0  0  0  0  0
    1.2790  -26.9076    3.3310 C   0  0  0  0  0  0  0  0  0  0  0  0
    2.6769  -27.0959    3.7742 C   0  0  0  0  0  0  0  0  0  0  0  0
    3.5055  -27.2301    2.6594 O   0  0  0  0  0  0  0  0  0  0  0  0
    0.1923  -26.7427    4.2306 N   0  0  0  0  0  0  0  0  0  0  0  0
   -1.1366  -26.5649    3.6746 C   0  0  0  0  0  0  0  0  0  0  0  0
   -2.0860  -25.8441    4.5716 C   0  0  0  0  0  0  0  0  0  0  0  0
   -1.3862  -25.0266    5.5969 C   0  0  0  0  0  0  0  0  0  0  0  0
   -0.1965  -25.4508    6.1441 C   0  0  0  0  0  0  0  0  0  0  0  0
    0.2020  -24.4929    7.0530 C   0  0  0  0  0  0  0  0  0  0  0  0
    1.3989  -24.4973    7.8870 C   0  0  0  0  0  0  0  0  0  0  0  0
    1.2332  -24.1602    9.2209 C   0  0  0  0  0  0  0  0  0  0  0  0
    2.2971  -24.1307   10.1010 C   0  0  0  0  0  0  0  0  0  0  0  0
    3.5650  -24.4463    9.6395 C   0  0  0  0  0  0  0  0  0  0  0  0
    4.9320  -24.4168   10.7338 Cl  0  0  0  0  0  0  0  0  0  0  0  0
    3.7287  -24.7835    8.3034 C   0  0  0  0  0  0  0  0  0  0  0  0
    5.0714  -25.1065    7.8686 C   0  0  0  0  0  0  0  0  0  0  0  0
    6.2008  -25.3865    7.5210 C   0  0  0  0  0  0  0  0  0  0  0  0
    7.5396  -25.7354    7.1258 C   0  0  0  0  0  0  0  0  0  0  0  0
    8.2559  -24.9511    6.2164 C   0  0  0  0  0  0  0  0  0  0  0  0
    9.5451  -25.3131    5.8549 C   0  0  0  0  0  0  0  0  0  0  0  0
   10.1278  -26.4539    6.3941 C   0  0  0  0  0  0  0  0  0  0  0  0
   11.7720  -26.9200    5.9357 Cl  0  0  0  0  0  0  0  0  0  0  0  0
    9.4018  -27.1952    7.2774 C   0  0  0  0  0  0  0  0  0  0  0  0
    8.1153  -26.8725    7.6658 C   0  0  0  0  0  0  0  0  0  0  0  0
    2.6508  -24.8065    7.4410 C   0  0  0  0  0  0  0  0  0  0  0  0
   -0.7138  -23.5256    7.0546 N   0  0  0  0  0  0  0  0  0  0  0  0
   -1.6599  -23.8459    6.1856 N   0  0  0  0  0  0  0  0  0  0  0  0
   -2.8373  -23.0311    5.9041 C   0  0  0  0  0  0  0  0  0  0  0  0
   -3.9800  -23.4103    6.8225 C   0  0  0  0  0  0  0  0  0  0  0  0
   -5.1951  -22.5921    6.5523 C   0  0  0  0  0  0  0  0  0  0  0  0
   -4.9839  -21.1724    6.7347 N   0  0  0  0  0  0  0  0  0  0  0  0
   -4.4543  -20.8360    8.0156 C   0  0  0  0  0  0  0  0  0  0  0  0
   -4.8957  -19.4328    8.3682 C   0  0  0  0  0  0  0  0  0  0  0  0
   -6.2594  -19.4141    8.6693 O   0  0  0  0  0  0  0  0  0  0  0  0
   -6.9877  -20.1576    7.7390 C   0  0  0  0  0  0  0  0  0  0  0  0
   -6.1648  -20.3981    6.4788 C   0  0  0  0  0  0  0  0  0  0  0  0
    0.3639  -26.7466    5.6826 C   0  0  0  0  0  0  0  0  0  0  0  0
  1  2  2  0
  2  3  1  0
  3  4  1  0
  2  5  1  0
  5  6  1  0
  6  7  1  0
  7  8  1  0
  8  9  2  0
  9 10  1  0
 10 11  1  0
 11 12  2  0
 12 13  1  0
 13 14  2  0
 14 15  1  0
 14 16  1  0
 16 17  1  0
 17 18  3  0
 18 19  1  0
 19 20  2  0
 20 21  1  0
 21 22  2  0
 22 23  1  0
 22 24  1  0
 24 25  2  0
 16 26  2  0
 10 27  2  0
 27 28  1  0
 28 29  1  0
 29 30  1  0
 30 31  1  0
 31 32  1  0
 32 33  1  0
 33 34  1  0
 34 35  1  0
 35 36  1  0
 36 37  1  0
  9 38  1  0
 38  5  1  0
 28  8  1  0
 37 32  1  0
 26 11  1  0
 25 19  1  0
M  CHG  1  32   1
M  END
>  <shape_align_shape_tanimoto>  (2) 
0.44659205161745141

>  <shape_align_color_tanimoto>  (2) 
0.093156374254639462

>  <metric>  (2) 
color

>  <metric_score>  (2) 
0.093

>  <template_pid>  (2) 
3IEJ

>  <template_shape_score>  (2) 
0.447

>  <template_color_score>  (2) 
0.093

>  <template_combo_score>  (2) 
0.270

$$$$
3IEJ_combo_pose
     RDKit          3D

 38 42  0  0  0  0  0  0  0  0999 V2000
   -0.0473  -27.6207    3.1985 O   0  0  0  0  0  0  0  0  0  0  0  0
    0.4372  -27.2684    4.3047 C   0  0  0  0  0  0  0  0  0  0  0  0
    1.8456  -27.5231    4.7016 C   0  0  0  0  0  0  0  0  0  0  0  0
    2.5158  -28.1918    3.6838 O   0  0  0  0  0  0  0  0  0  0  0  0
   -0.4137  -26.5904    5.2201 N   0  0  0  0  0  0  0  0  0  0  0  0
   -1.8008  -26.3021    4.9120 C   0  0  0  0  0  0  0  0  0  0  0  0
   -2.1183  -24.8258    4.9384 C   0  0  0  0  0  0  0  0  0  0  0  0
   -1.1847  -24.0837    5.7988 C   0  0  0  0  0  0  0  0  0  0  0  0
   -0.1729  -24.6631    6.5353 C   0  0  0  0  0  0  0  0  0  0  0  0
    0.5035  -23.6729    7.2226 C   0  0  0  0  0  0  0  0  0  0  0  0
    1.6445  -23.8007    8.1275 C   0  0  0  0  0  0  0  0  0  0  0  0
    2.7408  -22.9484    8.0558 C   0  0  0  0  0  0  0  0  0  0  0  0
    3.7660  -23.1354    8.9386 C   0  0  0  0  0  0  0  0  0  0  0  0
    3.7517  -24.1442    9.9027 C   0  0  0  0  0  0  0  0  0  0  0  0
    5.1043  -24.3380   11.0165 Cl  0  0  0  0  0  0  0  0  0  0  0  0
    2.6552  -24.9922    9.9701 C   0  0  0  0  0  0  0  0  0  0  0  0
    2.6008  -26.0535   10.9574 C   0  0  0  0  0  0  0  0  0  0  0  0
    2.5555  -26.9296   11.8003 C   0  0  0  0  0  0  0  0  0  0  0  0
    2.4813  -27.9586   12.7970 C   0  0  0  0  0  0  0  0  0  0  0  0
    2.7179  -27.6506   14.1172 C   0  0  0  0  0  0  0  0  0  0  0  0
    2.6667  -28.5807   15.1365 C   0  0  0  0  0  0  0  0  0  0  0  0
    2.3634  -29.8901   14.8276 C   0  0  0  0  0  0  0  0  0  0  0  0
    2.2831  -31.1246   16.0877 Cl  0  0  0  0  0  0  0  0  0  0  0  0
    2.1257  -30.1968   13.4971 C   0  0  0  0  0  0  0  0  0  0  0  0
    2.1783  -29.2669   12.4879 C   0  0  0  0  0  0  0  0  0  0  0  0
    1.6121  -24.8025    9.0724 C   0  0  0  0  0  0  0  0  0  0  0  0
   -0.1226  -22.5251    6.8786 N   0  0  0  0  0  0  0  0  0  0  0  0
   -1.1138  -22.7626    6.0431 N   0  0  0  0  0  0  0  0  0  0  0  0
   -1.9957  -21.7309    5.4760 C   0  0  0  0  0  0  0  0  0  0  0  0
   -3.1435  -21.6197    6.4603 C   0  0  0  0  0  0  0  0  0  0  0  0
   -4.1768  -20.5950    6.0530 C   0  0  0  0  0  0  0  0  0  0  0  0
   -5.1921  -20.6148    7.0891 N   0  0  0  0  0  0  0  0  0  0  0  0
   -5.6927  -21.9434    7.3389 C   0  0  0  0  0  0  0  0  0  0  0  0
   -7.0426  -21.7721    8.0345 C   0  0  0  0  0  0  0  0  0  0  0  0
   -7.0541  -20.6651    8.8623 O   0  0  0  0  0  0  0  0  0  0  0  0
   -6.9371  -19.4576    8.2089 C   0  0  0  0  0  0  0  0  0  0  0  0
   -6.2235  -19.6421    6.8764 C   0  0  0  0  0  0  0  0  0  0  0  0
    0.0693  -26.1493    6.5207 C   0  0  0  0  0  0  0  0  0  0  0  0
  1  2  2  0
  2  3  1  0
  3  4  1  0
  2  5  1  0
  5  6  1  0
  6  7  1  0
  7  8  1  0
  8  9  2  0
  9 10  1  0
 10 11  1  0
 11 12  2  0
 12 13  1  0
 13 14  2  0
 14 15  1  0
 14 16  1  0
 16 17  1  0
 17 18  3  0
 18 19  1  0
 19 20  2  0
 20 21  1  0
 21 22  2  0
 22 23  1  0
 22 24  1  0
 24 25  2  0
 16 26  2  0
 10 27  2  0
 27 28  1  0
 28 29  1  0
 29 30  1  0
 30 31  1  0
 31 32  1  0
 32 33  1  0
 33 34  1  0
 34 35  1  0
 35 36  1  0
 36 37  1  0
  9 38  1  0
 38  5  1  0
 28  8  1  0
 37 32  1  0
 26 11  1  0
 25 19  1  0
M  CHG  1  32   1
M  END
>  <shape_align_shape_tanimoto>  (3) 
0.80745242514476001

>  <shape_align_color_tanimoto>  (3) 
0.046455473943097916

>  <metric>  (3) 
combo

>  <metric_score>  (3) 
0.427

>  <template_pid>  (3) 
3IEJ

>  <template_shape_score>  (3) 
0.807

>  <template_color_score>  (3) 
0.046

>  <template_combo_score>  (3) 
0.427

$$$$
