3K5C_shape_pose
     RDKit          3D

 42 46  0  0  0  0  0  0  0  0999 V2000
   24.0938   47.0318   80.2263 C   0  0  0  0  0  0  0  0  0  0  0  0
   24.2448   46.5588   78.9449 O   0  0  0  0  0  0  0  0  0  0  0  0
   25.3371   45.7176   78.7608 C   0  0  0  0  0  0  0  0  0  0  0  0
   26.5687   46.4700   79.1053 C   0  0  0  0  0  0  0  0  0  0  0  0
   27.0589   46.4446   80.3944 C   0  0  0  0  0  0  0  0  0  0  0  0
   28.2050   47.1390   80.7416 C   0  0  0  0  0  0  0  0  0  0  0  0
   28.8440   47.8569   79.7727 C   0  0  0  0  0  0  0  0  0  0  0  0
   28.3449   47.8721   78.4945 C   0  0  0  0  0  0  0  0  0  0  0  0
   27.2106   47.1925   78.1216 C   0  0  0  0  0  0  0  0  0  0  0  0
   29.0805   48.6473   77.5074 C   0  0  0  0  0  0  0  0  0  0  0  0
   28.4789   49.4384   76.8011 O   0  0  0  0  0  0  0  0  0  0  0  0
   30.4949   48.5327   77.3207 N   0  0  0  0  0  0  0  0  0  0  0  0
   31.2382   49.3224   76.3657 C   0  0  2  0  0  0  0  0  0  0  0  0
   31.6540   48.6101   75.1441 C   0  0  2  0  0  0  0  0  0  0  0  0
   32.5149   47.5444   75.3759 O   0  0  0  0  0  0  0  0  0  0  0  0
   32.2920   49.5340   74.1571 C   0  0  0  0  0  0  0  0  0  0  0  0
   31.4932   50.6615   73.7734 N   0  0  0  0  0  0  0  0  0  0  0  0
   32.1251   51.9517   74.0482 C   0  0  0  0  0  0  0  0  0  0  0  0
   33.5745   52.0351   73.7259 C   0  0  0  0  0  0  0  0  0  0  0  0
   34.1707   51.3271   72.7077 C   0  0  0  0  0  0  0  0  0  0  0  0
   35.5134   51.3967   72.4073 C   0  0  0  0  0  0  0  0  0  0  0  0
   36.3436   52.2191   73.1547 C   0  0  0  0  0  0  0  0  0  0  0  0
   35.7820   52.9428   74.1821 C   0  0  0  0  0  0  0  0  0  0  0  0
   36.6566   53.8311   74.9983 C   0  0  0  0  0  0  0  0  0  0  0  0
   37.7735   53.0952   75.6771 C   0  0  0  0  0  0  0  0  0  0  0  0
   37.2500   54.9671   74.1958 C   0  0  0  0  0  0  0  0  0  0  0  0
   34.4277   52.8595   74.4693 C   0  0  0  0  0  0  0  0  0  0  0  0
   31.5180   52.7967   75.0841 C   0  0  0  0  0  0  0  0  0  0  0  0
   31.3666   53.1791   73.6281 C   0  0  0  0  0  0  0  0  0  0  0  0
   32.3674   49.9374   77.1516 C   0  0  0  0  0  0  0  0  0  0  0  0
   33.2875   49.0173   77.8188 C   0  0  0  0  0  0  0  0  0  0  0  0
   34.4257   48.6281   77.1075 C   0  0  0  0  0  0  0  0  0  0  0  0
   35.3068   47.7646   77.6705 C   0  0  0  0  0  0  0  0  0  0  0  0
   35.0831   47.2836   78.9163 C   0  0  0  0  0  0  0  0  0  0  0  0
   33.9560   47.6307   79.6992 C   0  0  0  0  0  0  0  0  0  0  0  0
   33.0808   48.5033   79.1129 C   0  0  0  0  0  0  0  0  0  0  0  0
   33.9160   47.0424   80.9130 O   0  0  0  0  0  0  0  0  0  0  0  0
   33.0908   46.1604   81.5408 C   0  0  0  0  0  0  0  0  0  0  0  0
   31.6969   46.7858   81.7337 C   0  0  0  0  0  0  0  0  0  0  0  0
   30.7594   45.7626   82.2775 C   0  0  0  0  0  0  0  0  0  0  0  0
   29.4676   46.2283   82.7934 C   0  0  0  0  0  0  0  0  0  0  0  0
   28.5938   47.0591   82.0972 N   0  0  0  0  0  0  0  0  0  0  0  0
  1  2  1  0
  2  3  1  0
  3  4  1  0
  4  5  2  0
  5  6  1  0
  6  7  2  0
  7  8  1  0
  8  9  2  0
  8 10  1  0
 10 11  2  0
 10 12  1  0
 12 13  1  0
 13 14  1  0
 14 15  1  1
 14 16  1  0
 16 17  1  0
 17 18  1  0
 18 19  1  0
 19 20  2  0
 20 21  1  0
 21 22  2  0
 22 23  1  0
 23 24  1  0
 24 25  1  0
 24 26  1  0
 23 27  2  0
 18 28  1  0
 28 29  1  0
 13 30  1  1
 30 31  1  0
 31 32  2  0
 32 33  1  0
 33 34  2  0
 34 35  1  0
 35 36  2  0
 35 37  1  0
 37 38  1  0
 38 39  1  0
 39 40  1  0
 40 41  1  0
 41 42  1  0
  9  4  1  0
 29 18  1  0
 36 31  1  0
 42  6  1  0
 27 19  1  0
M  CHG  1  17   1
M  END
>  <shape_align_shape_tanimoto>  (1) 
0.56967147483189606

>  <shape_align_color_tanimoto>  (1) 
0.02195187085801573

>  <metric>  (1) 
shape

>  <metric_score>  (1) 
0.570

>  <template_pid>  (1) 
3K5C

>  <template_shape_score>  (1) 
0.570

>  <template_color_score>  (1) 
0.022

>  <template_combo_score>  (1) 
0.296

$$$$
3K5C_color_pose
     RDKit          3D

 42 46  0  0  0  0  0  0  0  0999 V2000
   34.0155   51.6552   71.6496 C   0  0  0  0  0  0  0  0  0  0  0  0
   33.4136   51.0275   72.7192 O   0  0  0  0  0  0  0  0  0  0  0  0
   33.5196   51.7319   73.8988 C   0  0  0  0  0  0  0  0  0  0  0  0
   32.7713   50.9733   74.9460 C   0  0  0  0  0  0  0  0  0  0  0  0
   31.4169   51.3098   75.0932 C   0  0  0  0  0  0  0  0  0  0  0  0
   30.6494   50.6481   76.0618 C   0  0  0  0  0  0  0  0  0  0  0  0
   31.2685   49.7088   76.8134 C   0  0  0  0  0  0  0  0  0  0  0  0
   32.5949   49.3863   76.6542 C   0  0  0  0  0  0  0  0  0  0  0  0
   33.3775   50.0126   75.7195 C   0  0  0  0  0  0  0  0  0  0  0  0
   33.1026   48.2868   77.4745 C   0  0  0  0  0  0  0  0  0  0  0  0
   34.2510   48.2617   77.8529 O   0  0  0  0  0  0  0  0  0  0  0  0
   32.2059   47.2599   77.8028 N   0  0  0  0  0  0  0  0  0  0  0  0
   32.4538   46.0677   78.5920 C   0  0  2  0  0  0  0  0  0  0  0  0
   32.3725   44.8197   77.7663 C   0  0  2  0  0  0  0  0  0  0  0  0
   32.6176   43.6874   78.4733 O   0  0  0  0  0  0  0  0  0  0  0  0
   33.4532   45.0111   76.6851 C   0  0  0  0  0  0  0  0  0  0  0  0
   33.4985   43.9755   75.7134 N   0  0  0  0  0  0  0  0  0  0  0  0
   33.4399   44.4797   74.3549 C   0  0  0  0  0  0  0  0  0  0  0  0
   32.4055   43.9983   73.4187 C   0  0  0  0  0  0  0  0  0  0  0  0
   32.2719   44.5651   72.1509 C   0  0  0  0  0  0  0  0  0  0  0  0
   31.3026   44.1400   71.2553 C   0  0  0  0  0  0  0  0  0  0  0  0
   30.4187   43.1316   71.5756 C   0  0  0  0  0  0  0  0  0  0  0  0
   30.5333   42.5664   72.8112 C   0  0  0  0  0  0  0  0  0  0  0  0
   29.5838   41.4758   73.1600 C   0  0  0  0  0  0  0  0  0  0  0  0
   28.2752   42.1745   73.6020 C   0  0  0  0  0  0  0  0  0  0  0  0
   30.0497   40.5874   74.2551 C   0  0  0  0  0  0  0  0  0  0  0  0
   31.5047   42.9911   73.7111 C   0  0  0  0  0  0  0  0  0  0  0  0
   34.1183   45.7496   74.0106 C   0  0  0  0  0  0  0  0  0  0  0  0
   34.8500   44.4732   73.6725 C   0  0  0  0  0  0  0  0  0  0  0  0
   31.7811   46.0965   79.9025 C   0  0  0  0  0  0  0  0  0  0  0  0
   30.3667   46.4367   79.9852 C   0  0  0  0  0  0  0  0  0  0  0  0
   29.9943   47.1070   81.1777 C   0  0  0  0  0  0  0  0  0  0  0  0
   28.7262   47.5265   81.4516 C   0  0  0  0  0  0  0  0  0  0  0  0
   27.7617   47.2730   80.5012 C   0  0  0  0  0  0  0  0  0  0  0  0
   28.0400   46.6177   79.3007 C   0  0  0  0  0  0  0  0  0  0  0  0
   29.3699   46.2117   79.0752 C   0  0  0  0  0  0  0  0  0  0  0  0
   27.0064   46.4214   78.4627 O   0  0  0  0  0  0  0  0  0  0  0  0
   26.2454   47.3243   77.7766 C   0  0  0  0  0  0  0  0  0  0  0  0
   26.7672   48.1960   76.7254 C   0  0  0  0  0  0  0  0  0  0  0  0
   27.9480   49.0920   77.0926 C   0  0  0  0  0  0  0  0  0  0  0  0
   28.1891   50.0789   76.0013 C   0  0  0  0  0  0  0  0  0  0  0  0
   29.2697   50.9911   76.1334 N   0  0  0  0  0  0  0  0  0  0  0  0
  1  2  1  0
  2  3  1  0
  3  4  1  0
  4  5  2  0
  5  6  1  0
  6  7  2  0
  7  8  1  0
  8  9  2  0
  8 10  1  0
 10 11  2  0
 10 12  1  0
 12 13  1  0
 13 14  1  0
 14 15  1  1
 14 16  1  0
 16 17  1  0
 17 18  1  0
 18 19  1  0
 19 20  2  0
 20 21  1  0
 21 22  2  0
 22 23  1  0
 23 24  1  0
 24 25  1  0
 24 26  1  0
 23 27  2  0
 18 28  1  0
 28 29  1  0
 13 30  1  1
 30 31  1  0
 31 32  2  0
 32 33  1  0
 33 34  2  0
 34 35  1  0
 35 36  2  0
 35 37  1  0
 37 38  1  0
 38 39  1  0
 39 40  1  0
 40 41  1  0
 41 42  1  0
  9  4  1  0
 29 18  1  0
 36 31  1  0
 42  6  1  0
 27 19  1  0
M  CHG  1  17   1
M  END
>  <shape_align_shape_tanimoto>  (2) 
0.39969904494237812

>  <shape_align_color_tanimoto>  (2) 
0.14026763366649034

>  <metric>  (2) 
color

>  <metric_score>  (2) 
0.140

>  <template_pid>  (2) 
3K5C

>  <template_shape_score>  (2) 
0.400

>  <template_color_score>  (2) 
0.140

>  <template_combo_score>  (2) 
0.270

$$$$
3K5C_combo_pose
     RDKit          3D

 42 46  0  0  0  0  0  0  0  0999 V2000
   36.3795   48.8212   80.4698 C   0  0  0  0  0  0  0  0  0  0  0  0
   36.5902   47.4664   80.4569 O   0  0  0  0  0  0  0  0  0  0  0  0
   35.4291   46.7127   80.1955 C   0  0  0  0  0  0  0  0  0  0  0  0
   34.8903   47.0957   78.8617 C   0  0  0  0  0  0  0  0  0  0  0  0
   35.3535   46.3976   77.7454 C   0  0  0  0  0  0  0  0  0  0  0  0
   34.8657   46.7403   76.5105 C   0  0  0  0  0  0  0  0  0  0  0  0
   33.9456   47.7543   76.4445 C   0  0  0  0  0  0  0  0  0  0  0  0
   33.4711   48.4590   77.5270 C   0  0  0  0  0  0  0  0  0  0  0  0
   33.9627   48.1129   78.7642 C   0  0  0  0  0  0  0  0  0  0  0  0
   32.4967   49.5272   77.3259 C   0  0  0  0  0  0  0  0  0  0  0  0
   32.3767   50.4233   78.1656 O   0  0  0  0  0  0  0  0  0  0  0  0
   31.6461   49.6158   76.1901 N   0  0  0  0  0  0  0  0  0  0  0  0
   30.6829   50.6620   75.9500 C   0  0  2  0  0  0  0  0  0  0  0  0
   29.3017   50.0056   76.0454 C   0  0  2  0  0  0  0  0  0  0  0  0
   28.3123   50.9923   75.8088 O   0  0  0  0  0  0  0  0  0  0  0  0
   29.0311   49.5030   77.4384 C   0  0  0  0  0  0  0  0  0  0  0  0
   27.7679   48.9318   77.6472 N   0  0  0  0  0  0  0  0  0  0  0  0
   27.6800   47.5364   78.0140 C   0  0  0  0  0  0  0  0  0  0  0  0
   28.0281   47.1713   79.4103 C   0  0  0  0  0  0  0  0  0  0  0  0
   28.2180   45.8713   79.8321 C   0  0  0  0  0  0  0  0  0  0  0  0
   28.5390   45.5490   81.1468 C   0  0  0  0  0  0  0  0  0  0  0  0
   28.6850   46.5288   82.1043 C   0  0  0  0  0  0  0  0  0  0  0  0
   28.4991   47.8314   81.7020 C   0  0  0  0  0  0  0  0  0  0  0  0
   28.6537   48.8836   82.7484 C   0  0  0  0  0  0  0  0  0  0  0  0
   30.0312   48.7745   83.3660 C   0  0  0  0  0  0  0  0  0  0  0  0
   27.6428   48.6863   83.8642 C   0  0  0  0  0  0  0  0  0  0  0  0
   28.1769   48.1530   80.3801 C   0  0  0  0  0  0  0  0  0  0  0  0
   27.5402   46.4770   77.0166 C   0  0  0  0  0  0  0  0  0  0  0  0
   26.2941   46.9371   77.6144 C   0  0  0  0  0  0  0  0  0  0  0  0
   30.7502   51.2150   74.5485 C   0  0  0  0  0  0  0  0  0  0  0  0
   32.0756   51.7717   74.2027 C   0  0  0  0  0  0  0  0  0  0  0  0
   32.4601   52.9184   74.8634 C   0  0  0  0  0  0  0  0  0  0  0  0
   33.6981   53.4795   74.6432 C   0  0  0  0  0  0  0  0  0  0  0  0
   34.5214   52.8465   73.7437 C   0  0  0  0  0  0  0  0  0  0  0  0
   34.1418   51.6803   73.0658 C   0  0  0  0  0  0  0  0  0  0  0  0
   32.9182   51.1292   73.2819 C   0  0  0  0  0  0  0  0  0  0  0  0
   35.1296   51.1880   72.2009 O   0  0  0  0  0  0  0  0  0  0  0  0
   36.0693   50.2311   72.7366 C   0  0  0  0  0  0  0  0  0  0  0  0
   35.3097   49.0154   73.1093 C   0  0  0  0  0  0  0  0  0  0  0  0
   36.0487   48.0251   73.9981 C   0  0  0  0  0  0  0  0  0  0  0  0
   35.1360   46.8199   74.0944 C   0  0  0  0  0  0  0  0  0  0  0  0
   35.2971   46.0556   75.2955 N   0  0  0  0  0  0  0  0  0  0  0  0
  1  2  1  0
  2  3  1  0
  3  4  1  0
  4  5  2  0
  5  6  1  0
  6  7  2  0
  7  8  1  0
  8  9  2  0
  8 10  1  0
 10 11  2  0
 10 12  1  0
 12 13  1  0
 13 14  1  0
 14 15  1  1
 14 16  1  0
 16 17  1  0
 17 18  1  0
 18 19  1  0
 19 20  2  0
 20 21  1  0
 21 22  2  0
 22 23  1  0
 23 24  1  0
 24 25  1  0
 24 26  1  0
 23 27  2  0
 18 28  1  0
 28 29  1  0
 13 30  1  6
 30 31  1  0
 31 32  2  0
 32 33  1  0
 33 34  2  0
 34 35  1  0
 35 36  2  0
 35 37  1  0
 37 38  1  0
 38 39  1  0
 39 40  1  0
 40 41  1  0
 41 42  1  0
  9  4  1  0
 29 18  1  0
 36 31  1  0
 42  6  1  0
 27 19  1  0
M  CHG  1  17   1
M  END
>  <shape_align_shape_tanimoto>  (3) 
0.53289024232235149

>  <shape_align_color_tanimoto>  (3) 
0.097746698151440908

>  <metric>  (3) 
combo

>  <metric_score>  (3) 
0.315

>  <template_pid>  (3) 
3K5C

>  <template_shape_score>  (3) 
0.533

>  <template_color_score>  (3) 
0.098

>  <template_combo_score>  (3) 
0.315

$$$$
