3RDV_shape_pose
     RDKit          3D

 68 70  0  0  0  0  0  0  0  0999 V2000
   -2.6639   19.3841   55.9581 N   0  0  0  0  0  0  0  0  0  0  0  0
   -3.8347   19.7140   56.7401 C   0  0  0  0  0  0  0  0  0  0  0  0
   -4.9653   18.7140   56.7571 C   0  0  0  0  0  0  0  0  0  0  0  0
   -4.6844   17.3426   57.3032 C   0  0  0  0  0  0  0  0  0  0  0  0
   -3.6974   16.4461   56.6074 C   0  0  0  0  0  0  0  0  0  0  0  0
   -4.0185   16.0390   55.1959 C   0  0  2  0  0  0  0  0  0  0  0  0
   -5.3135   15.3011   55.0810 N   0  0  0  0  0  0  0  0  0  0  0  0
   -5.7542   15.0882   53.7041 C   0  0  0  0  0  0  0  0  0  0  0  0
   -4.9814   15.5335   52.7600 O   0  0  0  0  0  0  0  0  0  0  0  0
   -7.0073   14.4039   53.2982 C   0  0  2  0  0  0  0  0  0  0  0  0
   -7.5809   14.9839   51.9951 C   0  0  0  0  0  0  0  0  0  0  0  0
   -8.8525   14.2972   51.5665 C   0  0  0  0  0  0  0  0  0  0  0  0
   -8.8970   13.2584   50.5911 C   0  0  0  0  0  0  0  0  0  0  0  0
  -10.1860   12.8196   50.4438 N   0  0  0  0  0  0  0  0  0  0  0  0
  -10.9670   13.5510   51.2994 C   0  0  0  0  0  0  0  0  0  0  0  0
  -12.3600   13.4684   51.5061 C   0  0  0  0  0  0  0  0  0  0  0  0
  -12.9753   14.3404   52.4528 C   0  0  0  0  0  0  0  0  0  0  0  0
  -12.1553   15.2671   53.1566 C   0  0  0  0  0  0  0  0  0  0  0  0
  -10.7510   15.3192   52.9185 C   0  0  0  0  0  0  0  0  0  0  0  0
  -10.1746   14.4640   51.9983 C   0  0  0  0  0  0  0  0  0  0  0  0
   -7.9948   14.1708   54.3385 N   0  0  0  0  0  0  0  0  0  0  0  0
   -8.4017   12.8850   54.8553 C   0  0  0  0  0  0  0  0  0  0  0  0
   -7.9097   11.7697   54.4645 O   0  0  0  0  0  0  0  0  0  0  0  0
   -9.4959   12.9002   55.9298 C   0  0  2  0  0  0  0  0  0  0  0  0
   -9.2372   13.8586   57.0683 C   0  0  0  0  0  0  0  0  0  0  0  0
  -10.4073   13.8671   57.9045 O   0  0  0  0  0  0  0  0  0  0  0  0
   -9.7669   11.5236   56.3199 N   0  0  0  0  0  0  0  0  0  0  0  0
  -10.9521   10.8646   55.8213 C   0  0  0  0  0  0  0  0  0  0  0  0
  -11.7154   11.5225   55.0439 O   0  0  0  0  0  0  0  0  0  0  0  0
  -11.3574    9.4495   56.1547 C   0  0  1  0  0  0  0  0  0  0  0  0
  -10.5009    8.8506   57.1634 N   0  0  0  0  0  0  0  0  0  0  0  0
  -12.8422    9.4604   56.5644 C   0  0  0  0  0  0  0  0  0  0  0  0
  -13.3341    8.0950   56.8936 C   0  0  0  0  0  0  0  0  0  0  0  0
  -12.7006    7.0027   56.8550 O   0  0  0  0  0  0  0  0  0  0  0  0
  -14.7109    7.9969   57.3110 O   0  0  0  0  0  0  0  0  0  0  0  0
   -2.9564   14.9719   54.8017 C   0  0  0  0  0  0  0  0  0  0  0  0
   -3.2464   13.7456   54.6806 O   0  0  0  0  0  0  0  0  0  0  0  0
   -1.6071   15.5063   54.5766 N   0  0  0  0  0  0  0  0  0  0  0  0
   -0.4747   14.6916   54.1842 C   0  0  1  0  0  0  0  0  0  0  0  0
   -0.3031   14.6421   52.6398 C   0  0  0  0  0  0  0  0  0  0  0  0
   -0.1000   16.0136   52.0550 C   0  0  0  0  0  0  0  0  0  0  0  0
   -0.1126   17.0955   52.7371 O   0  0  0  0  0  0  0  0  0  0  0  0
    0.1200   16.1362   50.6652 O   0  0  0  0  0  0  0  0  0  0  0  0
    0.7973   15.0188   54.8847 C   0  0  0  0  0  0  0  0  0  0  0  0
    1.8445   14.3228   54.5407 O   0  0  0  0  0  0  0  0  0  0  0  0
    0.9604   16.0365   55.9017 N   0  0  0  0  0  0  0  0  0  0  0  0
    2.3208   16.2114   56.4575 C   0  0  0  0  0  0  0  0  0  0  0  0
    3.2005   16.6330   55.2661 C   0  0  0  0  0  0  0  0  0  0  0  0
    2.6827   16.7816   54.0980 O   0  0  0  0  0  0  0  0  0  0  0  0
    4.6077   16.8749   55.3994 N   0  0  0  0  0  0  0  0  0  0  0  0
    5.4306   17.2879   54.2262 C   0  0  1  0  0  0  0  0  0  0  0  0
    6.1540   18.6148   54.4470 C   0  0  0  0  0  0  0  0  0  0  0  0
    5.0030   19.9990   54.7700 S   0  0  0  0  0  0  0  0  0  0  0  0
    6.4042   16.2173   53.7912 C   0  0  0  0  0  0  0  0  0  0  0  0
    7.2016   16.5008   52.8411 O   0  0  0  0  0  0  0  0  0  0  0  0
    6.4557   14.8958   54.4132 N   0  0  0  0  0  0  0  0  0  0  0  0
    7.4394   13.9289   53.9265 C   0  0  1  0  0  0  0  0  0  0  0  0
    7.2420   13.4553   52.5032 C   0  0  0  0  0  0  0  0  0  0  0  0
    5.9315   12.7648   52.2336 C   0  0  0  0  0  0  0  0  0  0  0  0
    5.8305   11.3628   52.3934 C   0  0  0  0  0  0  0  0  0  0  0  0
    4.6108   10.6855   52.1327 C   0  0  0  0  0  0  0  0  0  0  0  0
    3.5169   11.4399   51.7157 C   0  0  0  0  0  0  0  0  0  0  0  0
    2.2767   10.7845   51.4465 O   0  0  0  0  0  0  0  0  0  0  0  0
    3.5881   12.8406   51.5471 C   0  0  0  0  0  0  0  0  0  0  0  0
    4.8036   13.5357   51.8042 C   0  0  0  0  0  0  0  0  0  0  0  0
    8.7939   14.6878   53.9721 C   0  0  0  0  0  0  0  0  0  0  0  0
    9.3950   15.0171   52.8986 O   0  0  0  0  0  0  0  0  0  0  0  0
    9.2893   14.9729   55.2664 O   0  0  0  0  0  0  0  0  0  0  0  0
  1  2  1  0
  2  3  1  0
  3  4  1  0
  4  5  1  0
  6  5  1  1
  6  7  1  0
  7  8  1  0
  8  9  2  0
  8 10  1  0
 10 11  1  6
 11 12  1  0
 12 13  2  0
 13 14  1  0
 14 15  1  0
 15 16  2  0
 16 17  1  0
 17 18  2  0
 18 19  1  0
 19 20  2  0
 10 21  1  0
 21 22  1  0
 22 23  2  0
 22 24  1  0
 24 25  1  1
 25 26  1  0
 24 27  1  0
 27 28  1  0
 28 29  2  0
 28 30  1  0
 30 31  1  1
 30 32  1  0
 32 33  1  0
 33 34  2  0
 33 35  1  0
  6 36  1  0
 36 37  2  0
 36 38  1  0
 38 39  1  0
 39 40  1  6
 40 41  1  0
 41 42  2  0
 41 43  1  0
 39 44  1  0
 44 45  2  0
 44 46  1  0
 46 47  1  0
 47 48  1  0
 48 49  2  0
 48 50  1  0
 50 51  1  0
 51 52  1  1
 52 53  1  0
 51 54  1  0
 54 55  2  0
 54 56  1  0
 56 57  1  0
 57 58  1  6
 58 59  1  0
 59 60  2  0
 60 61  1  0
 61 62  2  0
 62 63  1  0
 62 64  1  0
 64 65  2  0
 57 66  1  0
 66 67  2  0
 66 68  1  0
 20 12  1  0
 65 59  1  0
 20 15  1  0
M  CHG  5   1   1  31   1  35  -1  43  -1  68  -1
M  END
>  <shape_align_shape_tanimoto>  (1) 
0.4527052703274676

>  <shape_align_color_tanimoto>  (1) 
0.04393104451740875

>  <metric>  (1) 
shape

>  <metric_score>  (1) 
0.453

>  <template_pid>  (1) 
3RDV

>  <template_shape_score>  (1) 
0.453

>  <template_color_score>  (1) 
0.044

>  <template_combo_score>  (1) 
0.248

$$$$
3RDV_color_pose
     RDKit          3D

 68 70  0  0  0  0  0  0  0  0999 V2000
   -7.9668   10.9002   55.9001 N   0  0  0  0  0  0  0  0  0  0  0  0
   -8.2664   11.6021   54.6818 C   0  0  0  0  0  0  0  0  0  0  0  0
   -7.0223   12.0512   53.9935 C   0  0  0  0  0  0  0  0  0  0  0  0
   -6.1665   12.9926   54.8182 C   0  0  0  0  0  0  0  0  0  0  0  0
   -4.9665   13.3487   53.9926 C   0  0  0  0  0  0  0  0  0  0  0  0
   -4.0205   14.3172   54.6287 C   0  0  2  0  0  0  0  0  0  0  0  0
   -4.4557   15.6234   54.9255 N   0  0  0  0  0  0  0  0  0  0  0  0
   -5.6354   16.2851   54.5227 C   0  0  0  0  0  0  0  0  0  0  0  0
   -6.4891   15.7325   53.7744 O   0  0  0  0  0  0  0  0  0  0  0  0
   -5.9606   17.6724   54.9436 C   0  0  2  0  0  0  0  0  0  0  0  0
   -6.1241   18.5586   53.7243 C   0  0  0  0  0  0  0  0  0  0  0  0
   -7.2278   18.0013   52.9130 C   0  0  0  0  0  0  0  0  0  0  0  0
   -7.1694   17.3105   51.7027 C   0  0  0  0  0  0  0  0  0  0  0  0
   -8.4028   16.9907   51.2868 N   0  0  0  0  0  0  0  0  0  0  0  0
   -9.3024   17.4579   52.2027 C   0  0  0  0  0  0  0  0  0  0  0  0
  -10.6837   17.3767   52.2208 C   0  0  0  0  0  0  0  0  0  0  0  0
  -11.3275   17.9479   53.2910 C   0  0  0  0  0  0  0  0  0  0  0  0
  -10.6713   18.5828   54.3228 C   0  0  0  0  0  0  0  0  0  0  0  0
   -9.2871   18.6423   54.2667 C   0  0  0  0  0  0  0  0  0  0  0  0
   -8.5748   18.0811   53.2055 C   0  0  0  0  0  0  0  0  0  0  0  0
   -5.0253   18.2348   55.8908 N   0  0  0  0  0  0  0  0  0  0  0  0
   -5.5887   18.9650   57.0054 C   0  0  0  0  0  0  0  0  0  0  0  0
   -6.8306   19.0985   57.1131 O   0  0  0  0  0  0  0  0  0  0  0  0
   -4.6571   19.5369   57.9892 C   0  0  2  0  0  0  0  0  0  0  0  0
   -4.1399   18.3410   58.8194 C   0  0  0  0  0  0  0  0  0  0  0  0
   -5.2350   17.7147   59.4086 O   0  0  0  0  0  0  0  0  0  0  0  0
   -5.3341   20.3787   58.9568 N   0  0  0  0  0  0  0  0  0  0  0  0
   -4.6681   21.5807   59.3260 C   0  0  0  0  0  0  0  0  0  0  0  0
   -3.5340   21.8018   58.7789 O   0  0  0  0  0  0  0  0  0  0  0  0
   -5.2019   22.5681   60.2875 C   0  0  1  0  0  0  0  0  0  0  0  0
   -4.1145   23.5349   60.5093 N   0  0  0  0  0  0  0  0  0  0  0  0
   -6.3301   23.3821   59.6973 C   0  0  0  0  0  0  0  0  0  0  0  0
   -6.7936   24.3375   60.7394 C   0  0  0  0  0  0  0  0  0  0  0  0
   -6.4029   24.3932   61.8998 O   0  0  0  0  0  0  0  0  0  0  0  0
   -7.7764   25.2519   60.3039 O   0  0  0  0  0  0  0  0  0  0  0  0
   -2.7575   14.3275   53.9013 C   0  0  0  0  0  0  0  0  0  0  0  0
   -2.1798   13.2243   53.6121 O   0  0  0  0  0  0  0  0  0  0  0  0
   -2.1769   15.5826   53.5112 N   0  0  0  0  0  0  0  0  0  0  0  0
   -0.9363   15.5258   52.7773 C   0  0  1  0  0  0  0  0  0  0  0  0
   -1.2991   15.6757   51.2624 C   0  0  0  0  0  0  0  0  0  0  0  0
   -1.9728   16.9668   51.0511 C   0  0  0  0  0  0  0  0  0  0  0  0
   -2.2132   17.8142   51.9431 O   0  0  0  0  0  0  0  0  0  0  0  0
   -2.3796   17.2766   49.7513 O   0  0  0  0  0  0  0  0  0  0  0  0
    0.0764   16.4950   53.1295 C   0  0  0  0  0  0  0  0  0  0  0  0
    1.2023   16.4299   52.5186 O   0  0  0  0  0  0  0  0  0  0  0  0
   -0.0420   17.5424   54.1020 N   0  0  0  0  0  0  0  0  0  0  0  0
    1.1369   18.3767   54.2548 C   0  0  0  0  0  0  0  0  0  0  0  0
    2.2503   17.5402   54.7617 C   0  0  0  0  0  0  0  0  0  0  0  0
    3.4021   18.0229   54.8790 O   0  0  0  0  0  0  0  0  0  0  0  0
    2.0837   16.1806   55.1400 N   0  0  0  0  0  0  0  0  0  0  0  0
    3.1685   15.3444   55.6190 C   0  0  1  0  0  0  0  0  0  0  0  0
    2.9971   15.3733   57.1630 C   0  0  0  0  0  0  0  0  0  0  0  0
    3.1368   17.0902   57.7467 S   0  0  0  0  0  0  0  0  0  0  0  0
    3.0239   13.9473   55.2336 C   0  0  0  0  0  0  0  0  0  0  0  0
    1.9657   13.6280   54.5863 O   0  0  0  0  0  0  0  0  0  0  0  0
    3.9349   12.9190   55.5079 N   0  0  0  0  0  0  0  0  0  0  0  0
    3.6432   11.5783   55.0766 C   0  0  1  0  0  0  0  0  0  0  0  0
    4.4941   11.1666   53.8892 C   0  0  0  0  0  0  0  0  0  0  0  0
    4.2084   12.1128   52.7570 C   0  0  0  0  0  0  0  0  0  0  0  0
    3.1799   11.8238   51.8906 C   0  0  0  0  0  0  0  0  0  0  0  0
    2.8977   12.6784   50.8454 C   0  0  0  0  0  0  0  0  0  0  0  0
    3.6343   13.8474   50.6346 C   0  0  0  0  0  0  0  0  0  0  0  0
    3.3140   14.6735   49.5715 O   0  0  0  0  0  0  0  0  0  0  0  0
    4.6494   14.1150   51.5052 C   0  0  0  0  0  0  0  0  0  0  0  0
    4.9400   13.2630   52.5569 C   0  0  0  0  0  0  0  0  0  0  0  0
    3.7137   10.6097   56.1957 C   0  0  0  0  0  0  0  0  0  0  0  0
    4.6611    9.7856   56.3116 O   0  0  0  0  0  0  0  0  0  0  0  0
    2.6893   10.6357   57.1293 O   0  0  0  0  0  0  0  0  0  0  0  0
  1  2  1  0
  2  3  1  0
  3  4  1  0
  4  5  1  0
  6  5  1  6
  6  7  1  0
  7  8  1  0
  8  9  2  0
  8 10  1  0
 10 11  1  6
 11 12  1  0
 12 13  2  0
 13 14  1  0
 14 15  1  0
 15 16  2  0
 16 17  1  0
 17 18  2  0
 18 19  1  0
 19 20  2  0
 10 21  1  0
 21 22  1  0
 22 23  2  0
 22 24  1  0
 24 25  1  1
 25 26  1  0
 24 27  1  0
 27 28  1  0
 28 29  2  0
 28 30  1  0
 30 31  1  6
 30 32  1  0
 32 33  1  0
 33 34  2  0
 33 35  1  0
  6 36  1  0
 36 37  2  0
 36 38  1  0
 38 39  1  0
 39 40  1  6
 40 41  1  0
 41 42  2  0
 41 43  1  0
 39 44  1  0
 44 45  2  0
 44 46  1  0
 46 47  1  0
 47 48  1  0
 48 49  2  0
 48 50  1  0
 50 51  1  0
 51 52  1  1
 52 53  1  0
 51 54  1  0
 54 55  2  0
 54 56  1  0
 56 57  1  0
 57 58  1  6
 58 59  1  0
 59 60  2  0
 60 61  1  0
 61 62  2  0
 62 63  1  0
 62 64  1  0
 64 65  2  0
 57 66  1  0
 66 67  2  0
 66 68  1  0
 20 12  1  0
 65 59  1  0
 20 15  1  0
M  CHG  5   1   1  31   1  35  -1  43  -1  68  -1
M  END
>  <shape_align_shape_tanimoto>  (2) 
0.36989451021388742

>  <shape_align_color_tanimoto>  (2) 
0.06511176155393758

>  <metric>  (2) 
color

>  <metric_score>  (2) 
0.065

>  <template_pid>  (2) 
3RDV

>  <template_shape_score>  (2) 
0.370

>  <template_color_score>  (2) 
0.065

>  <template_combo_score>  (2) 
0.218

$$$$
3RDV_combo_pose
     RDKit          3D

 68 70  0  0  0  0  0  0  0  0999 V2000
   -2.6639   19.3841   55.9581 N   0  0  0  0  0  0  0  0  0  0  0  0
   -3.8347   19.7140   56.7401 C   0  0  0  0  0  0  0  0  0  0  0  0
   -4.9653   18.7140   56.7571 C   0  0  0  0  0  0  0  0  0  0  0  0
   -4.6844   17.3426   57.3032 C   0  0  0  0  0  0  0  0  0  0  0  0
   -3.6974   16.4461   56.6074 C   0  0  0  0  0  0  0  0  0  0  0  0
   -4.0185   16.0390   55.1959 C   0  0  2  0  0  0  0  0  0  0  0  0
   -5.3135   15.3011   55.0810 N   0  0  0  0  0  0  0  0  0  0  0  0
   -5.7542   15.0882   53.7041 C   0  0  0  0  0  0  0  0  0  0  0  0
   -4.9814   15.5335   52.7600 O   0  0  0  0  0  0  0  0  0  0  0  0
   -7.0073   14.4039   53.2982 C   0  0  2  0  0  0  0  0  0  0  0  0
   -7.5809   14.9839   51.9951 C   0  0  0  0  0  0  0  0  0  0  0  0
   -8.8525   14.2972   51.5665 C   0  0  0  0  0  0  0  0  0  0  0  0
   -8.8970   13.2584   50.5911 C   0  0  0  0  0  0  0  0  0  0  0  0
  -10.1860   12.8196   50.4438 N   0  0  0  0  0  0  0  0  0  0  0  0
  -10.9670   13.5510   51.2994 C   0  0  0  0  0  0  0  0  0  0  0  0
  -12.3600   13.4684   51.5061 C   0  0  0  0  0  0  0  0  0  0  0  0
  -12.9753   14.3404   52.4528 C   0  0  0  0  0  0  0  0  0  0  0  0
  -12.1553   15.2671   53.1566 C   0  0  0  0  0  0  0  0  0  0  0  0
  -10.7510   15.3192   52.9185 C   0  0  0  0  0  0  0  0  0  0  0  0
  -10.1746   14.4640   51.9983 C   0  0  0  0  0  0  0  0  0  0  0  0
   -7.9948   14.1708   54.3385 N   0  0  0  0  0  0  0  0  0  0  0  0
   -8.4017   12.8850   54.8553 C   0  0  0  0  0  0  0  0  0  0  0  0
   -7.9097   11.7697   54.4645 O   0  0  0  0  0  0  0  0  0  0  0  0
   -9.4959   12.9002   55.9298 C   0  0  2  0  0  0  0  0  0  0  0  0
   -9.2372   13.8586   57.0683 C   0  0  0  0  0  0  0  0  0  0  0  0
  -10.4073   13.8671   57.9045 O   0  0  0  0  0  0  0  0  0  0  0  0
   -9.7669   11.5236   56.3199 N   0  0  0  0  0  0  0  0  0  0  0  0
  -10.9521   10.8646   55.8213 C   0  0  0  0  0  0  0  0  0  0  0  0
  -11.7154   11.5225   55.0439 O   0  0  0  0  0  0  0  0  0  0  0  0
  -11.3574    9.4495   56.1547 C   0  0  1  0  0  0  0  0  0  0  0  0
  -10.5009    8.8506   57.1634 N   0  0  0  0  0  0  0  0  0  0  0  0
  -12.8422    9.4604   56.5644 C   0  0  0  0  0  0  0  0  0  0  0  0
  -13.3341    8.0950   56.8936 C   0  0  0  0  0  0  0  0  0  0  0  0
  -12.7006    7.0027   56.8550 O   0  0  0  0  0  0  0  0  0  0  0  0
  -14.7109    7.9969   57.3110 O   0  0  0  0  0  0  0  0  0  0  0  0
   -2.9564   14.9719   54.8017 C   0  0  0  0  0  0  0  0  0  0  0  0
   -3.2464   13.7456   54.6806 O   0  0  0  0  0  0  0  0  0  0  0  0
   -1.6071   15.5063   54.5766 N   0  0  0  0  0  0  0  0  0  0  0  0
   -0.4747   14.6916   54.1842 C   0  0  1  0  0  0  0  0  0  0  0  0
   -0.3031   14.6421   52.6398 C   0  0  0  0  0  0  0  0  0  0  0  0
   -0.1000   16.0136   52.0550 C   0  0  0  0  0  0  0  0  0  0  0  0
   -0.1126   17.0955   52.7371 O   0  0  0  0  0  0  0  0  0  0  0  0
    0.1200   16.1362   50.6652 O   0  0  0  0  0  0  0  0  0  0  0  0
    0.7973   15.0188   54.8847 C   0  0  0  0  0  0  0  0  0  0  0  0
    1.8445   14.3228   54.5407 O   0  0  0  0  0  0  0  0  0  0  0  0
    0.9604   16.0365   55.9017 N   0  0  0  0  0  0  0  0  0  0  0  0
    2.3208   16.2114   56.4575 C   0  0  0  0  0  0  0  0  0  0  0  0
    3.2005   16.6330   55.2661 C   0  0  0  0  0  0  0  0  0  0  0  0
    2.6827   16.7816   54.0980 O   0  0  0  0  0  0  0  0  0  0  0  0
    4.6077   16.8749   55.3994 N   0  0  0  0  0  0  0  0  0  0  0  0
    5.4306   17.2879   54.2262 C   0  0  1  0  0  0  0  0  0  0  0  0
    6.1540   18.6148   54.4470 C   0  0  0  0  0  0  0  0  0  0  0  0
    5.0030   19.9990   54.7700 S   0  0  0  0  0  0  0  0  0  0  0  0
    6.4042   16.2173   53.7912 C   0  0  0  0  0  0  0  0  0  0  0  0
    7.2016   16.5008   52.8411 O   0  0  0  0  0  0  0  0  0  0  0  0
    6.4557   14.8958   54.4132 N   0  0  0  0  0  0  0  0  0  0  0  0
    7.4394   13.9289   53.9265 C   0  0  1  0  0  0  0  0  0  0  0  0
    7.2420   13.4553   52.5032 C   0  0  0  0  0  0  0  0  0  0  0  0
    5.9315   12.7648   52.2336 C   0  0  0  0  0  0  0  0  0  0  0  0
    5.8305   11.3628   52.3934 C   0  0  0  0  0  0  0  0  0  0  0  0
    4.6108   10.6855   52.1327 C   0  0  0  0  0  0  0  0  0  0  0  0
    3.5169   11.4399   51.7157 C   0  0  0  0  0  0  0  0  0  0  0  0
    2.2767   10.7845   51.4465 O   0  0  0  0  0  0  0  0  0  0  0  0
    3.5881   12.8406   51.5471 C   0  0  0  0  0  0  0  0  0  0  0  0
    4.8036   13.5357   51.8042 C   0  0  0  0  0  0  0  0  0  0  0  0
    8.7939   14.6878   53.9721 C   0  0  0  0  0  0  0  0  0  0  0  0
    9.3950   15.0171   52.8986 O   0  0  0  0  0  0  0  0  0  0  0  0
    9.2893   14.9729   55.2664 O   0  0  0  0  0  0  0  0  0  0  0  0
  1  2  1  0
  2  3  1  0
  3  4  1  0
  4  5  1  0
  6  5  1  1
  6  7  1  0
  7  8  1  0
  8  9  2  0
  8 10  1  0
 10 11  1  6
 11 12  1  0
 12 13  2  0
 13 14  1  0
 14 15  1  0
 15 16  2  0
 16 17  1  0
 17 18  2  0
 18 19  1  0
 19 20  2  0
 10 21  1  0
 21 22  1  0
 22 23  2  0
 22 24  1  0
 24 25  1  1
 25 26  1  0
 24 27  1  0
 27 28  1  0
 28 29  2  0
 28 30  1  0
 30 31  1  1
 30 32  1  0
 32 33  1  0
 33 34  2  0
 33 35  1  0
  6 36  1  0
 36 37  2  0
 36 38  1  0
 38 39  1  0
 39 40  1  6
 40 41  1  0
 41 42  2  0
 41 43  1  0
 39 44  1  0
 44 45  2  0
 44 46  1  0
 46 47  1  0
 47 48  1  0
 48 49  2  0
 48 50  1  0
 50 51  1  0
 51 52  1  1
 52 53  1  0
 51 54  1  0
 54 55  2  0
 54 56  1  0
 56 57  1  0
 57 58  1  6
 58 59  1  0
 59 60  2  0
 60 61  1  0
 61 62  2  0
 62 63  1  0
 62 64  1  0
 64 65  2  0
 57 66  1  0
 66 67  2  0
 66 68  1  0
 20 12  1  0
 65 59  1  0
 20 15  1  0
M  CHG  5   1   1  31   1  35  -1  43  -1  68  -1
M  END
>  <shape_align_shape_tanimoto>  (3) 
0.4527052703274676

>  <shape_align_color_tanimoto>  (3) 
0.04393104451740875

>  <metric>  (3) 
combo

>  <metric_score>  (3) 
0.248

>  <template_pid>  (3) 
3RDV

>  <template_shape_score>  (3) 
0.453

>  <template_color_score>  (3) 
0.044

>  <template_combo_score>  (3) 
0.248

$$$$
