4KQQ_shape_pose
     RDKit          3D

 37 39  0  0  0  0  0  0  0  0999 V2000
  -37.9674    2.7175   20.6230 C   0  0  0  0  0  0  0  0  0  0  0  0
  -36.8150    3.1481   21.4698 C   0  0  0  0  0  0  0  0  0  0  0  0
  -36.1385    4.3453   20.9446 N   0  0  0  0  0  0  0  0  0  0  0  0
  -35.0546    4.1096   20.0215 C   0  0  0  0  0  0  0  0  0  0  0  0
  -34.8100    5.2597   19.0732 C   0  0  0  0  0  0  0  0  0  0  0  0
  -34.7662    6.5329   19.8048 N   0  0  0  0  0  0  0  0  0  0  0  0
  -33.6972    7.4103   19.5301 C   0  0  0  0  0  0  0  0  0  0  0  0
  -32.8696    7.0051   18.6366 O   0  0  0  0  0  0  0  0  0  0  0  0
  -33.4417    8.6474   20.1117 N   0  0  0  0  0  0  0  0  0  0  0  0
  -32.3090    9.4957   19.7680 C   0  0  1  0  0  0  0  0  0  0  0  0
  -32.6730   10.8405   19.3241 C   0  0  0  0  0  0  0  0  0  0  0  0
  -31.8183   11.7003   18.9204 O   0  0  0  0  0  0  0  0  0  0  0  0
  -34.0314   11.3090   19.3054 N   0  0  0  0  0  0  0  0  0  0  0  0
  -34.3935   12.6420   18.8661 C   0  0  2  0  0  0  0  0  0  0  0  0
  -34.9900   13.3206   20.0272 C   0  0  0  0  0  0  0  0  0  0  0  0
  -35.0964   14.5792   20.1369 O   0  0  0  0  0  0  0  0  0  0  0  0
  -35.4954   12.5947   21.1204 O   0  0  0  0  0  0  0  0  0  0  0  0
  -35.2579   12.5729   17.6544 C   0  0  1  0  0  0  0  0  0  0  0  0
  -36.4876   11.8832   17.7734 N   0  0  0  0  0  0  0  0  0  0  0  0
  -37.6184   12.6934   17.4969 C   0  0  1  0  0  0  0  0  0  0  0  0
  -37.9649   13.6128   18.6255 C   0  0  0  0  0  0  0  0  0  0  0  0
  -38.5037   13.2102   19.6884 O   0  0  0  0  0  0  0  0  0  0  0  0
  -37.7023   14.9944   18.5524 O   0  0  0  0  0  0  0  0  0  0  0  0
  -37.3129   13.5759   16.3052 C   0  0  0  0  0  0  0  0  0  0  0  0
  -37.0302   12.7361   15.0835 C   0  0  0  0  0  0  0  0  0  0  0  0
  -38.3034   14.6398   16.0807 C   0  0  0  0  0  0  0  0  0  0  0  0
  -35.7046   14.1973   16.9638 S   0  0  0  0  0  0  0  0  0  0  0  0
  -31.3013    9.4941   20.8575 C   0  0  0  0  0  0  0  0  0  0  0  0
  -30.9483    8.2612   21.3729 C   0  0  0  0  0  0  0  0  0  0  0  0
  -30.0284    8.1152   22.3887 C   0  0  0  0  0  0  0  0  0  0  0  0
  -29.4237    9.2535   22.9248 C   0  0  0  0  0  0  0  0  0  0  0  0
  -29.7896   10.4883   22.3948 C   0  0  0  0  0  0  0  0  0  0  0  0
  -30.7115   10.6159   21.3790 C   0  0  0  0  0  0  0  0  0  0  0  0
  -35.8124    6.7808   20.7263 C   0  0  0  0  0  0  0  0  0  0  0  0
  -36.0963    7.9486   21.0062 O   0  0  0  0  0  0  0  0  0  0  0  0
  -36.5459    5.6579   21.3367 C   0  0  0  0  0  0  0  0  0  0  0  0
  -37.4754    5.8247   22.1522 O   0  0  0  0  0  0  0  0  0  0  0  0
  1  2  1  0
  2  3  1  0
  3  4  1  0
  4  5  1  0
  5  6  1  0
  6  7  1  0
  7  8  2  0
  7  9  1  0
 10  9  1  1
 10 11  1  0
 11 12  2  0
 11 13  1  0
 14 13  1  1
 14 15  1  0
 15 16  2  0
 15 17  1  0
 14 18  1  0
 18 19  1  1
 19 20  1  0
 20 21  1  1
 21 22  2  0
 21 23  1  0
 20 24  1  0
 24 25  1  0
 24 26  1  0
 24 27  1  0
 10 28  1  0
 28 29  2  0
 29 30  1  0
 30 31  2  0
 31 32  1  0
 32 33  2  0
  6 34  1  0
 34 35  2  0
 34 36  1  0
 36 37  2  0
 36  3  1  0
 27 18  1  0
 33 28  1  0
M  CHG  3  17  -1  19   1  23  -1
M  END
>  <shape_align_shape_tanimoto>  (1) 
0.50535004153289964

>  <shape_align_color_tanimoto>  (1) 
0.040738875230409137

>  <metric>  (1) 
shape

>  <metric_score>  (1) 
0.505

>  <template_pid>  (1) 
4KQQ

>  <template_shape_score>  (1) 
0.505

>  <template_color_score>  (1) 
0.041

>  <template_combo_score>  (1) 
0.273

$$$$
4KQQ_color_pose
     RDKit          3D

 37 39  0  0  0  0  0  0  0  0999 V2000
  -39.2577   15.9279   11.4781 C   0  0  0  0  0  0  0  0  0  0  0  0
  -38.1714   16.0821   12.5601 C   0  0  0  0  0  0  0  0  0  0  0  0
  -38.4146   15.1527   13.6425 N   0  0  0  0  0  0  0  0  0  0  0  0
  -37.8377   13.8086   13.6498 C   0  0  0  0  0  0  0  0  0  0  0  0
  -36.9794   13.6161   14.8869 C   0  0  0  0  0  0  0  0  0  0  0  0
  -37.6925   14.0453   16.0762 N   0  0  0  0  0  0  0  0  0  0  0  0
  -37.2019   13.6170   17.3467 C   0  0  0  0  0  0  0  0  0  0  0  0
  -37.7891   13.9044   18.4221 O   0  0  0  0  0  0  0  0  0  0  0  0
  -36.0101   12.8386   17.4441 N   0  0  0  0  0  0  0  0  0  0  0  0
  -35.6063   12.4508   18.8205 C   0  0  1  0  0  0  0  0  0  0  0  0
  -34.5144   11.5050   18.7567 C   0  0  0  0  0  0  0  0  0  0  0  0
  -34.0760   11.1984   17.5891 O   0  0  0  0  0  0  0  0  0  0  0  0
  -33.8644   10.8647   19.8292 N   0  0  0  0  0  0  0  0  0  0  0  0
  -32.7705    9.9555   19.5689 C   0  0  2  0  0  0  0  0  0  0  0  0
  -33.1217    8.6291   20.1188 C   0  0  0  0  0  0  0  0  0  0  0  0
  -34.0744    8.4389   20.9357 O   0  0  0  0  0  0  0  0  0  0  0  0
  -32.3559    7.5436   19.7110 O   0  0  0  0  0  0  0  0  0  0  0  0
  -31.4739   10.3752   20.1623 C   0  0  1  0  0  0  0  0  0  0  0  0
  -31.5096   10.4898   21.6011 N   0  0  0  0  0  0  0  0  0  0  0  0
  -30.1491   10.4917   22.0682 C   0  0  1  0  0  0  0  0  0  0  0  0
  -30.2054   10.5503   23.5521 C   0  0  0  0  0  0  0  0  0  0  0  0
  -30.0514    9.5719   24.3093 O   0  0  0  0  0  0  0  0  0  0  0  0
  -30.4657   11.8218   24.0941 O   0  0  0  0  0  0  0  0  0  0  0  0
  -29.4657    9.2405   21.6351 C   0  0  0  0  0  0  0  0  0  0  0  0
  -27.9898    9.4245   21.3760 C   0  0  0  0  0  0  0  0  0  0  0  0
  -29.7315    8.0181   22.4426 C   0  0  0  0  0  0  0  0  0  0  0  0
  -30.2891    9.0136   19.9905 S   0  0  0  0  0  0  0  0  0  0  0  0
  -35.1306   13.7946   19.3660 C   0  0  0  0  0  0  0  0  0  0  0  0
  -34.1955   14.5237   18.6071 C   0  0  0  0  0  0  0  0  0  0  0  0
  -33.7826   15.7497   19.0450 C   0  0  0  0  0  0  0  0  0  0  0  0
  -34.2778   16.2733   20.2237 C   0  0  0  0  0  0  0  0  0  0  0  0
  -35.1872   15.5592   20.9676 C   0  0  0  0  0  0  0  0  0  0  0  0
  -35.6413   14.2911   20.5523 C   0  0  0  0  0  0  0  0  0  0  0  0
  -38.8307   14.8934   16.0403 C   0  0  0  0  0  0  0  0  0  0  0  0
  -39.5224   15.1667   17.0557 O   0  0  0  0  0  0  0  0  0  0  0  0
  -39.2203   15.4832   14.7698 C   0  0  0  0  0  0  0  0  0  0  0  0
  -40.1968   16.2480   14.6004 O   0  0  0  0  0  0  0  0  0  0  0  0
  1  2  1  0
  2  3  1  0
  3  4  1  0
  4  5  1  0
  5  6  1  0
  6  7  1  0
  7  8  2  0
  7  9  1  0
 10  9  1  6
 10 11  1  0
 11 12  2  0
 11 13  1  0
 14 13  1  1
 14 15  1  0
 15 16  2  0
 15 17  1  0
 14 18  1  0
 18 19  1  1
 19 20  1  0
 20 21  1  1
 21 22  2  0
 21 23  1  0
 20 24  1  0
 24 25  1  0
 24 26  1  0
 24 27  1  0
 10 28  1  0
 28 29  2  0
 29 30  1  0
 30 31  2  0
 31 32  1  0
 32 33  2  0
  6 34  1  0
 34 35  2  0
 34 36  1  0
 36 37  2  0
 36  3  1  0
 27 18  1  0
 33 28  1  0
M  CHG  3  17  -1  19   1  23  -1
M  END
>  <shape_align_shape_tanimoto>  (2) 
0.48517902862071272

>  <shape_align_color_tanimoto>  (2) 
0.071276244966785057

>  <metric>  (2) 
color

>  <metric_score>  (2) 
0.071

>  <template_pid>  (2) 
4KQQ

>  <template_shape_score>  (2) 
0.485

>  <template_color_score>  (2) 
0.071

>  <template_combo_score>  (2) 
0.278

$$$$
4KQQ_combo_pose
     RDKit          3D

 37 39  0  0  0  0  0  0  0  0999 V2000
  -39.2577   15.9279   11.4781 C   0  0  0  0  0  0  0  0  0  0  0  0
  -38.1714   16.0821   12.5601 C   0  0  0  0  0  0  0  0  0  0  0  0
  -38.4146   15.1527   13.6425 N   0  0  0  0  0  0  0  0  0  0  0  0
  -37.8377   13.8086   13.6498 C   0  0  0  0  0  0  0  0  0  0  0  0
  -36.9794   13.6161   14.8869 C   0  0  0  0  0  0  0  0  0  0  0  0
  -37.6925   14.0453   16.0762 N   0  0  0  0  0  0  0  0  0  0  0  0
  -37.2019   13.6170   17.3467 C   0  0  0  0  0  0  0  0  0  0  0  0
  -37.7891   13.9044   18.4221 O   0  0  0  0  0  0  0  0  0  0  0  0
  -36.0101   12.8386   17.4441 N   0  0  0  0  0  0  0  0  0  0  0  0
  -35.6063   12.4508   18.8205 C   0  0  1  0  0  0  0  0  0  0  0  0
  -34.5144   11.5050   18.7567 C   0  0  0  0  0  0  0  0  0  0  0  0
  -34.0760   11.1984   17.5891 O   0  0  0  0  0  0  0  0  0  0  0  0
  -33.8644   10.8647   19.8292 N   0  0  0  0  0  0  0  0  0  0  0  0
  -32.7705    9.9555   19.5689 C   0  0  2  0  0  0  0  0  0  0  0  0
  -33.1217    8.6291   20.1188 C   0  0  0  0  0  0  0  0  0  0  0  0
  -34.0744    8.4389   20.9357 O   0  0  0  0  0  0  0  0  0  0  0  0
  -32.3559    7.5436   19.7110 O   0  0  0  0  0  0  0  0  0  0  0  0
  -31.4739   10.3752   20.1623 C   0  0  1  0  0  0  0  0  0  0  0  0
  -31.5096   10.4898   21.6011 N   0  0  0  0  0  0  0  0  0  0  0  0
  -30.1491   10.4917   22.0682 C   0  0  1  0  0  0  0  0  0  0  0  0
  -30.2054   10.5503   23.5521 C   0  0  0  0  0  0  0  0  0  0  0  0
  -30.0514    9.5719   24.3093 O   0  0  0  0  0  0  0  0  0  0  0  0
  -30.4657   11.8218   24.0941 O   0  0  0  0  0  0  0  0  0  0  0  0
  -29.4657    9.2405   21.6351 C   0  0  0  0  0  0  0  0  0  0  0  0
  -27.9898    9.4245   21.3760 C   0  0  0  0  0  0  0  0  0  0  0  0
  -29.7315    8.0181   22.4426 C   0  0  0  0  0  0  0  0  0  0  0  0
  -30.2891    9.0136   19.9905 S   0  0  0  0  0  0  0  0  0  0  0  0
  -35.1306   13.7946   19.3660 C   0  0  0  0  0  0  0  0  0  0  0  0
  -34.1955   14.5237   18.6071 C   0  0  0  0  0  0  0  0  0  0  0  0
  -33.7826   15.7497   19.0450 C   0  0  0  0  0  0  0  0  0  0  0  0
  -34.2778   16.2733   20.2237 C   0  0  0  0  0  0  0  0  0  0  0  0
  -35.1872   15.5592   20.9676 C   0  0  0  0  0  0  0  0  0  0  0  0
  -35.6413   14.2911   20.5523 C   0  0  0  0  0  0  0  0  0  0  0  0
  -38.8307   14.8934   16.0403 C   0  0  0  0  0  0  0  0  0  0  0  0
  -39.5224   15.1667   17.0557 O   0  0  0  0  0  0  0  0  0  0  0  0
  -39.2203   15.4832   14.7698 C   0  0  0  0  0  0  0  0  0  0  0  0
  -40.1968   16.2480   14.6004 O   0  0  0  0  0  0  0  0  0  0  0  0
  1  2  1  0
  2  3  1  0
  3  4  1  0
  4  5  1  0
  5  6  1  0
  6  7  1  0
  7  8  2  0
  7  9  1  0
 10  9  1  6
 10 11  1  0
 11 12  2  0
 11 13  1  0
 14 13  1  1
 14 15  1  0
 15 16  2  0
 15 17  1  0
 14 18  1  0
 18 19  1  1
 19 20  1  0
 20 21  1  1
 21 22  2  0
 21 23  1  0
 20 24  1  0
 24 25  1  0
 24 26  1  0
 24 27  1  0
 10 28  1  0
 28 29  2  0
 29 30  1  0
 30 31  2  0
 31 32  1  0
 32 33  2  0
  6 34  1  0
 34 35  2  0
 34 36  1  0
 36 37  2  0
 36  3  1  0
 27 18  1  0
 33 28  1  0
M  CHG  3  17  -1  19   1  23  -1
M  END
>  <shape_align_shape_tanimoto>  (3) 
0.48517902862071272

>  <shape_align_color_tanimoto>  (3) 
0.071276244966785057

>  <metric>  (3) 
combo

>  <metric_score>  (3) 
0.278

>  <template_pid>  (3) 
4KQQ

>  <template_shape_score>  (3) 
0.485

>  <template_color_score>  (3) 
0.071

>  <template_combo_score>  (3) 
0.278

$$$$
