4MM5_shape_pose
     RDKit          3D

 20 22  0  0  0  0  0  0  0  0999 V2000
   30.8278   20.5182   24.7360 C   0  0  0  0  0  0  0  0  0  0  0  0
   32.0477   20.1755   25.4291 N   0  0  0  0  0  0  0  0  0  0  0  0
   32.2076   21.0106   26.6044 C   0  0  1  0  0  0  0  0  0  0  0  0
   32.7828   20.2857   27.7651 C   0  0  0  0  0  0  0  0  0  0  0  0
   33.8026   21.0635   28.5687 C   0  0  0  0  0  0  0  0  0  0  0  0
   33.4743   22.5200   28.6467 C   0  0  1  0  0  0  0  0  0  0  0  0
   34.4953   23.2191   29.4336 C   0  0  0  0  0  0  0  0  0  0  0  0
   34.1147   24.3978   30.0726 C   0  0  0  0  0  0  0  0  0  0  0  0
   35.0106   25.1257   30.8371 C   0  0  0  0  0  0  0  0  0  0  0  0
   36.3148   24.7093   30.9940 C   0  0  0  0  0  0  0  0  0  0  0  0
   37.4813   25.6049   31.9556 Cl  0  0  0  0  0  0  0  0  0  0  0  0
   36.7134   23.5418   30.3681 C   0  0  0  0  0  0  0  0  0  0  0  0
   38.3651   22.9731   30.5400 Cl  0  0  0  0  0  0  0  0  0  0  0  0
   35.7963   22.8260   29.6045 C   0  0  0  0  0  0  0  0  0  0  0  0
   33.5564   23.0500   27.2343 C   0  0  0  0  0  0  0  0  0  0  0  0
   34.2176   24.2195   26.9351 C   0  0  0  0  0  0  0  0  0  0  0  0
   34.2770   24.6702   25.6325 C   0  0  0  0  0  0  0  0  0  0  0  0
   33.6516   23.9002   24.6740 C   0  0  0  0  0  0  0  0  0  0  0  0
   32.9927   22.7345   24.9724 C   0  0  0  0  0  0  0  0  0  0  0  0
   32.9242   22.2653   26.2892 C   0  0  0  0  0  0  0  0  0  0  0  0
  1  2  1  0
  3  2  1  6
  3  4  1  0
  4  5  1  0
  5  6  1  0
  6  7  1  1
  7  8  2  0
  8  9  1  0
  9 10  2  0
 10 11  1  0
 10 12  1  0
 12 13  1  0
 12 14  2  0
  6 15  1  0
 15 16  2  0
 16 17  1  0
 17 18  2  0
 18 19  1  0
 19 20  2  0
 20  3  1  0
 14  7  1  0
 20 15  1  0
M  CHG  1   2   1
M  END
>  <shape_align_shape_tanimoto>  (1) 
0.6504042349629785

>  <shape_align_color_tanimoto>  (1) 
0.089774006798532813

>  <metric>  (1) 
shape

>  <metric_score>  (1) 
0.650

>  <template_pid>  (1) 
4MM5

>  <template_shape_score>  (1) 
0.650

>  <template_color_score>  (1) 
0.090

>  <template_combo_score>  (1) 
0.370

$$$$
4MM5_color_pose
     RDKit          3D

 20 22  0  0  0  0  0  0  0  0999 V2000
   32.9724   20.3385   24.8338 C   0  0  0  0  0  0  0  0  0  0  0  0
   31.8187   20.7290   25.5789 N   0  0  0  0  0  0  0  0  0  0  0  0
   32.1285   21.5321   26.7545 C   0  0  1  0  0  0  0  0  0  0  0  0
   32.6595   20.6686   27.8438 C   0  0  0  0  0  0  0  0  0  0  0  0
   33.8914   21.1552   28.5346 C   0  0  0  0  0  0  0  0  0  0  0  0
   33.7586   22.6204   28.7761 C   0  0  1  0  0  0  0  0  0  0  0  0
   34.8171   23.2306   29.5991 C   0  0  0  0  0  0  0  0  0  0  0  0
   36.0946   22.7213   29.6368 C   0  0  0  0  0  0  0  0  0  0  0  0
   37.0652   23.3160   30.4183 C   0  0  0  0  0  0  0  0  0  0  0  0
   36.7354   24.4298   31.1620 C   0  0  0  0  0  0  0  0  0  0  0  0
   38.0107   25.1399   32.1343 Cl  0  0  0  0  0  0  0  0  0  0  0  0
   35.4713   24.9749   31.1562 C   0  0  0  0  0  0  0  0  0  0  0  0
   35.0951   26.3950   32.1193 Cl  0  0  0  0  0  0  0  0  0  0  0  0
   34.5271   24.3537   30.3632 C   0  0  0  0  0  0  0  0  0  0  0  0
   33.7634   23.2422   27.4203 C   0  0  0  0  0  0  0  0  0  0  0  0
   34.5737   24.3510   27.1753 C   0  0  0  0  0  0  0  0  0  0  0  0
   34.5710   24.9189   25.9182 C   0  0  0  0  0  0  0  0  0  0  0  0
   33.7779   24.4009   24.9093 C   0  0  0  0  0  0  0  0  0  0  0  0
   32.9928   23.3030   25.1985 C   0  0  0  0  0  0  0  0  0  0  0  0
   32.9567   22.6974   26.4335 C   0  0  0  0  0  0  0  0  0  0  0  0
  1  2  1  0
  3  2  1  6
  3  4  1  0
  4  5  1  0
  5  6  1  0
  6  7  1  1
  7  8  2  0
  8  9  1  0
  9 10  2  0
 10 11  1  0
 10 12  1  0
 12 13  1  0
 12 14  2  0
  6 15  1  0
 15 16  2  0
 16 17  1  0
 17 18  2  0
 18 19  1  0
 19 20  2  0
 20  3  1  0
 14  7  1  0
 20 15  1  0
M  CHG  1   2   1
M  END
>  <shape_align_shape_tanimoto>  (2) 
0.6121611033942761

>  <shape_align_color_tanimoto>  (2) 
0.10087670140913686

>  <metric>  (2) 
color

>  <metric_score>  (2) 
0.101

>  <template_pid>  (2) 
4MM5

>  <template_shape_score>  (2) 
0.612

>  <template_color_score>  (2) 
0.101

>  <template_combo_score>  (2) 
0.357

$$$$
4MM5_combo_pose
     RDKit          3D

 20 22  0  0  0  0  0  0  0  0999 V2000
   30.8278   20.5182   24.7360 C   0  0  0  0  0  0  0  0  0  0  0  0
   32.0477   20.1755   25.4291 N   0  0  0  0  0  0  0  0  0  0  0  0
   32.2076   21.0106   26.6044 C   0  0  1  0  0  0  0  0  0  0  0  0
   32.7828   20.2857   27.7651 C   0  0  0  0  0  0  0  0  0  0  0  0
   33.8026   21.0635   28.5687 C   0  0  0  0  0  0  0  0  0  0  0  0
   33.4743   22.5200   28.6467 C   0  0  1  0  0  0  0  0  0  0  0  0
   34.4953   23.2191   29.4336 C   0  0  0  0  0  0  0  0  0  0  0  0
   34.1147   24.3978   30.0726 C   0  0  0  0  0  0  0  0  0  0  0  0
   35.0106   25.1257   30.8371 C   0  0  0  0  0  0  0  0  0  0  0  0
   36.3148   24.7093   30.9940 C   0  0  0  0  0  0  0  0  0  0  0  0
   37.4813   25.6049   31.9556 Cl  0  0  0  0  0  0  0  0  0  0  0  0
   36.7134   23.5418   30.3681 C   0  0  0  0  0  0  0  0  0  0  0  0
   38.3651   22.9731   30.5400 Cl  0  0  0  0  0  0  0  0  0  0  0  0
   35.7963   22.8260   29.6045 C   0  0  0  0  0  0  0  0  0  0  0  0
   33.5564   23.0500   27.2343 C   0  0  0  0  0  0  0  0  0  0  0  0
   34.2176   24.2195   26.9351 C   0  0  0  0  0  0  0  0  0  0  0  0
   34.2770   24.6702   25.6325 C   0  0  0  0  0  0  0  0  0  0  0  0
   33.6516   23.9002   24.6740 C   0  0  0  0  0  0  0  0  0  0  0  0
   32.9927   22.7345   24.9724 C   0  0  0  0  0  0  0  0  0  0  0  0
   32.9242   22.2653   26.2892 C   0  0  0  0  0  0  0  0  0  0  0  0
  1  2  1  0
  3  2  1  6
  3  4  1  0
  4  5  1  0
  5  6  1  0
  6  7  1  1
  7  8  2  0
  8  9  1  0
  9 10  2  0
 10 11  1  0
 10 12  1  0
 12 13  1  0
 12 14  2  0
  6 15  1  0
 15 16  2  0
 16 17  1  0
 17 18  2  0
 18 19  1  0
 19 20  2  0
 20  3  1  0
 14  7  1  0
 20 15  1  0
M  CHG  1   2   1
M  END
>  <shape_align_shape_tanimoto>  (3) 
0.6504042349629785

>  <shape_align_color_tanimoto>  (3) 
0.089774006798532813

>  <metric>  (3) 
combo

>  <metric_score>  (3) 
0.370

>  <template_pid>  (3) 
4MM5

>  <template_shape_score>  (3) 
0.650

>  <template_color_score>  (3) 
0.090

>  <template_combo_score>  (3) 
0.370

$$$$
