5O0J_shape_pose
     RDKit          3D

 24 26  0  0  0  0  0  0  0  0999 V2000
   -6.2439    2.3820    0.2484 N   0  0  0  0  0  0  0  0  0  0  0  0
   -6.9770    3.2350   -0.6245 C   0  0  0  0  0  0  0  0  0  0  0  0
   -6.6404    4.5193   -0.8487 N   0  0  0  0  0  0  0  0  0  0  0  0
   -7.3575    5.3142   -1.6878 C   0  0  0  0  0  0  0  0  0  0  0  0
   -8.4526    4.8399   -2.3395 N   0  0  0  0  0  0  0  0  0  0  0  0
   -8.8121    3.5610   -2.1346 C   0  0  0  0  0  0  0  0  0  0  0  0
   -8.0879    2.7376   -1.2795 C   0  0  0  0  0  0  0  0  0  0  0  0
   -8.6877    1.5153   -1.2775 N   0  0  0  0  0  0  0  0  0  0  0  0
   -9.7651    1.5622   -2.1102 C   0  0  0  0  0  0  0  0  0  0  0  0
  -10.9761    0.1132   -2.4860 Br  0  0  0  0  0  0  0  0  0  0  0  0
   -9.8218    2.8168   -2.6209 N   0  0  0  0  0  0  0  0  0  0  0  0
  -10.8720    3.2126   -3.5632 C   0  0  2  0  0  0  0  0  0  0  0  0
  -10.5836    4.4243   -4.1258 O   0  0  0  0  0  0  0  0  0  0  0  0
  -11.5880    5.3198   -3.8159 C   0  0  2  0  0  0  0  0  0  0  0  0
  -11.1122    6.7308   -3.6626 C   0  0  0  0  0  0  0  0  0  0  0  0
  -12.2050    7.5424   -3.3521 O   0  0  0  0  0  0  0  0  0  0  0  0
  -11.7358    9.1710   -3.1636 P   0  0  0  0  0  0  0  0  0  0  0  0
  -10.2376    9.3224   -3.1375 O   0  0  0  0  0  0  0  0  0  0  0  0
  -12.3172   10.0884   -4.4843 O   0  0  0  0  0  0  0  0  0  0  0  0
  -12.4361    9.8521   -1.7676 O   0  0  0  0  0  0  0  0  0  0  0  0
  -12.3104    4.7811   -2.6065 C   0  0  1  0  0  0  0  0  0  0  0  0
  -13.6333    5.2114   -2.5453 O   0  0  0  0  0  0  0  0  0  0  0  0
  -12.2185    3.2948   -2.8828 C   0  0  1  0  0  0  0  0  0  0  0  0
  -13.1906    2.9521   -3.8059 O   0  0  0  0  0  0  0  0  0  0  0  0
  1  2  1  0
  2  3  2  0
  3  4  1  0
  4  5  2  0
  5  6  1  0
  6  7  2  0
  7  8  1  0
  8  9  2  0
  9 10  1  0
  9 11  1  0
 12 11  1  1
 12 13  1  0
 13 14  1  0
 14 15  1  1
 15 16  1  0
 16 17  1  0
 17 18  2  0
 17 19  1  0
 17 20  1  0
 14 21  1  0
 21 22  1  6
 21 23  1  0
 23 24  1  6
  7  2  1  0
 23 12  1  0
 11  6  1  0
M  END
>  <shape_align_shape_tanimoto>  (1) 
0.59737022844376819

>  <shape_align_color_tanimoto>  (1) 
0.031151941369265891

>  <metric>  (1) 
shape

>  <metric_score>  (1) 
0.597

>  <template_pid>  (1) 
5O0J

>  <template_shape_score>  (1) 
0.597

>  <template_color_score>  (1) 
0.031

>  <template_combo_score>  (1) 
0.314

$$$$
5O0J_color_pose
     RDKit          3D

 24 26  0  0  0  0  0  0  0  0999 V2000
   -9.5070   -0.8912   -2.8041 N   0  0  0  0  0  0  0  0  0  0  0  0
  -10.5075    0.1116   -2.9844 C   0  0  0  0  0  0  0  0  0  0  0  0
  -11.7491   -0.2117   -3.4026 N   0  0  0  0  0  0  0  0  0  0  0  0
  -12.6972    0.7556   -3.5713 C   0  0  0  0  0  0  0  0  0  0  0  0
  -12.4075    2.0460   -3.3230 N   0  0  0  0  0  0  0  0  0  0  0  0
  -11.1614    2.3753   -2.9027 C   0  0  0  0  0  0  0  0  0  0  0  0
  -10.1766    1.4251   -2.7206 C   0  0  0  0  0  0  0  0  0  0  0  0
   -9.0846    2.0888   -2.3058 N   0  0  0  0  0  0  0  0  0  0  0  0
   -9.3792    3.4202   -2.2303 C   0  0  0  0  0  0  0  0  0  0  0  0
   -8.1082    4.7363   -1.6799 Br  0  0  0  0  0  0  0  0  0  0  0  0
  -10.6612    3.6002   -2.5984 N   0  0  0  0  0  0  0  0  0  0  0  0
  -11.3579    4.8396   -2.6568 C   0  0  2  0  0  0  0  0  0  0  0  0
  -10.9741    5.6596   -3.7370 O   0  0  0  0  0  0  0  0  0  0  0  0
  -11.7924    6.7758   -3.4495 C   0  0  2  0  0  0  0  0  0  0  0  0
  -11.5418    7.9059   -4.3945 C   0  0  0  0  0  0  0  0  0  0  0  0
  -12.3960    8.9571   -4.0280 O   0  0  0  0  0  0  0  0  0  0  0  0
  -12.1273   10.2498   -5.0888 P   0  0  0  0  0  0  0  0  0  0  0  0
  -13.4402   10.5913   -5.7420 O   0  0  0  0  0  0  0  0  0  0  0  0
  -10.9340    9.8728   -6.2135 O   0  0  0  0  0  0  0  0  0  0  0  0
  -11.6206   11.6359   -4.2361 O   0  0  0  0  0  0  0  0  0  0  0  0
  -11.3440    7.0881   -2.0347 C   0  0  1  0  0  0  0  0  0  0  0  0
  -12.2743    7.8926   -1.3800 O   0  0  0  0  0  0  0  0  0  0  0  0
  -11.2991    5.6922   -1.4350 C   0  0  1  0  0  0  0  0  0  0  0  0
  -12.4424    5.5687   -0.6340 O   0  0  0  0  0  0  0  0  0  0  0  0
  1  2  1  0
  2  3  2  0
  3  4  1  0
  4  5  2  0
  5  6  1  0
  6  7  2  0
  7  8  1  0
  8  9  2  0
  9 10  1  0
  9 11  1  0
 12 11  1  1
 12 13  1  0
 13 14  1  0
 14 15  1  6
 15 16  1  0
 16 17  1  0
 17 18  2  0
 17 19  1  0
 17 20  1  0
 14 21  1  0
 21 22  1  1
 21 23  1  0
 23 24  1  1
  7  2  1  0
 23 12  1  0
 11  6  1  0
M  END
>  <shape_align_shape_tanimoto>  (2) 
0.52081900819652849

>  <shape_align_color_tanimoto>  (2) 
0.092686281209889032

>  <metric>  (2) 
color

>  <metric_score>  (2) 
0.093

>  <template_pid>  (2) 
5O0J

>  <template_shape_score>  (2) 
0.521

>  <template_color_score>  (2) 
0.093

>  <template_combo_score>  (2) 
0.307

$$$$
5O0J_combo_pose
     RDKit          3D

 24 26  0  0  0  0  0  0  0  0999 V2000
   -6.2439    2.3820    0.2484 N   0  0  0  0  0  0  0  0  0  0  0  0
   -6.9770    3.2350   -0.6245 C   0  0  0  0  0  0  0  0  0  0  0  0
   -6.6404    4.5193   -0.8487 N   0  0  0  0  0  0  0  0  0  0  0  0
   -7.3575    5.3142   -1.6878 C   0  0  0  0  0  0  0  0  0  0  0  0
   -8.4526    4.8399   -2.3395 N   0  0  0  0  0  0  0  0  0  0  0  0
   -8.8121    3.5610   -2.1346 C   0  0  0  0  0  0  0  0  0  0  0  0
   -8.0879    2.7376   -1.2795 C   0  0  0  0  0  0  0  0  0  0  0  0
   -8.6877    1.5153   -1.2775 N   0  0  0  0  0  0  0  0  0  0  0  0
   -9.7651    1.5622   -2.1102 C   0  0  0  0  0  0  0  0  0  0  0  0
  -10.9761    0.1132   -2.4860 Br  0  0  0  0  0  0  0  0  0  0  0  0
   -9.8218    2.8168   -2.6209 N   0  0  0  0  0  0  0  0  0  0  0  0
  -10.8720    3.2126   -3.5632 C   0  0  2  0  0  0  0  0  0  0  0  0
  -10.5836    4.4243   -4.1258 O   0  0  0  0  0  0  0  0  0  0  0  0
  -11.5880    5.3198   -3.8159 C   0  0  2  0  0  0  0  0  0  0  0  0
  -11.1122    6.7308   -3.6626 C   0  0  0  0  0  0  0  0  0  0  0  0
  -12.2050    7.5424   -3.3521 O   0  0  0  0  0  0  0  0  0  0  0  0
  -11.7358    9.1710   -3.1636 P   0  0  0  0  0  0  0  0  0  0  0  0
  -10.2376    9.3224   -3.1375 O   0  0  0  0  0  0  0  0  0  0  0  0
  -12.3172   10.0884   -4.4843 O   0  0  0  0  0  0  0  0  0  0  0  0
  -12.4361    9.8521   -1.7676 O   0  0  0  0  0  0  0  0  0  0  0  0
  -12.3104    4.7811   -2.6065 C   0  0  1  0  0  0  0  0  0  0  0  0
  -13.6333    5.2114   -2.5453 O   0  0  0  0  0  0  0  0  0  0  0  0
  -12.2185    3.2948   -2.8828 C   0  0  1  0  0  0  0  0  0  0  0  0
  -13.1906    2.9521   -3.8059 O   0  0  0  0  0  0  0  0  0  0  0  0
  1  2  1  0
  2  3  2  0
  3  4  1  0
  4  5  2  0
  5  6  1  0
  6  7  2  0
  7  8  1  0
  8  9  2  0
  9 10  1  0
  9 11  1  0
 12 11  1  1
 12 13  1  0
 13 14  1  0
 14 15  1  1
 15 16  1  0
 16 17  1  0
 17 18  2  0
 17 19  1  0
 17 20  1  0
 14 21  1  0
 21 22  1  6
 21 23  1  0
 23 24  1  6
  7  2  1  0
 23 12  1  0
 11  6  1  0
M  END
>  <shape_align_shape_tanimoto>  (3) 
0.59737022844376819

>  <shape_align_color_tanimoto>  (3) 
0.031151941369265891

>  <metric>  (3) 
combo

>  <metric_score>  (3) 
0.314

>  <template_pid>  (3) 
5O0J

>  <template_shape_score>  (3) 
0.597

>  <template_color_score>  (3) 
0.031

>  <template_combo_score>  (3) 
0.314

$$$$
