830C_shape_pose
     RDKit          3D

 28 30  0  0  0  0  0  0  0  0999 V2000
   -1.5631   51.8241   52.4800 O   0  0  0  0  0  0  0  0  0  0  0  0
   -1.2756   51.1271   51.4417 C   0  0  0  0  0  0  0  0  0  0  0  0
   -0.9277   49.7786   51.6989 N   0  0  0  0  0  0  0  0  0  0  0  0
   -0.8810   49.2351   52.9363 O   0  0  0  0  0  0  0  0  0  0  0  0
   -1.3445   51.7832   50.1541 C   0  0  0  0  0  0  0  0  0  0  0  0
   -0.1350   52.3163   49.5146 C   0  0  0  0  0  0  0  0  0  0  0  0
    1.2157   51.3350   49.1046 S   0  0  0  0  0  0  0  0  0  0  0  0
    0.8071   50.3522   47.9922 O   0  0  0  0  0  0  0  0  0  0  0  0
    2.2431   52.2318   48.3953 O   0  0  0  0  0  0  0  0  0  0  0  0
    2.0760   50.5287   50.3454 C   0  0  0  0  0  0  0  0  0  0  0  0
    2.0622   49.1854   50.6295 C   0  0  0  0  0  0  0  0  0  0  0  0
    2.7766   48.5980   51.6417 C   0  0  0  0  0  0  0  0  0  0  0  0
    3.5715   49.3786   52.4464 C   0  0  0  0  0  0  0  0  0  0  0  0
    4.2800   48.7496   53.4606 O   0  0  0  0  0  0  0  0  0  0  0  0
    3.7131   48.5975   54.7316 C   0  0  0  0  0  0  0  0  0  0  0  0
    2.9889   47.4349   54.9346 C   0  0  0  0  0  0  0  0  0  0  0  0
    2.3870   47.1829   56.1510 C   0  0  0  0  0  0  0  0  0  0  0  0
    2.5293   48.1254   57.1585 C   0  0  0  0  0  0  0  0  0  0  0  0
    1.7552   47.7852   58.6994 Cl  0  0  0  0  0  0  0  0  0  0  0  0
    3.2584   49.2982   56.9573 C   0  0  0  0  0  0  0  0  0  0  0  0
    3.8629   49.5437   55.7242 C   0  0  0  0  0  0  0  0  0  0  0  0
    3.6221   50.7312   52.2056 C   0  0  0  0  0  0  0  0  0  0  0  0
    2.8962   51.3068   51.1820 C   0  0  0  0  0  0  0  0  0  0  0  0
   -2.3452   52.9624   50.1858 C   0  0  0  0  0  0  0  0  0  0  0  0
   -3.7028   52.5365   50.5777 C   0  0  0  0  0  0  0  0  0  0  0  0
   -4.2080   51.3976   50.0434 O   0  0  0  0  0  0  0  0  0  0  0  0
   -3.3075   50.3674   49.8591 C   0  0  0  0  0  0  0  0  0  0  0  0
   -2.0520   50.8079   49.1761 C   0  0  0  0  0  0  0  0  0  0  0  0
  1  2  2  0
  2  3  1  0
  3  4  1  0
  2  5  1  0
  5  6  1  0
  6  7  1  0
  7  8  2  0
  7  9  2  0
  7 10  1  0
 10 11  2  0
 11 12  1  0
 12 13  2  0
 13 14  1  0
 14 15  1  0
 15 16  2  0
 16 17  1  0
 17 18  2  0
 18 19  1  0
 18 20  1  0
 20 21  2  0
 13 22  1  0
 22 23  2  0
  5 24  1  0
 24 25  1  0
 25 26  1  0
 26 27  1  0
 27 28  1  0
 28  5  1  0
 23 10  1  0
 21 15  1  0
M  END
>  <shape_align_shape_tanimoto>  (1) 
0.69435890325299199

>  <shape_align_color_tanimoto>  (1) 
0.05234044291864446

>  <metric>  (1) 
shape

>  <metric_score>  (1) 
0.694

>  <template_pid>  (1) 
830C

>  <template_shape_score>  (1) 
0.694

>  <template_color_score>  (1) 
0.052

>  <template_combo_score>  (1) 
0.373

$$$$
830C_color_pose
     RDKit          3D

 28 30  0  0  0  0  0  0  0  0999 V2000
   -2.2885   53.4933   49.8005 O   0  0  0  0  0  0  0  0  0  0  0  0
   -2.5547   52.2654   50.0046 C   0  0  0  0  0  0  0  0  0  0  0  0
   -3.8724   51.8469   50.3088 N   0  0  0  0  0  0  0  0  0  0  0  0
   -4.8971   52.7283   50.4001 O   0  0  0  0  0  0  0  0  0  0  0  0
   -1.4091   51.2572   49.9090 C   0  0  0  0  0  0  0  0  0  0  0  0
   -0.2734   52.0731   49.4134 C   0  0  0  0  0  0  0  0  0  0  0  0
    1.2564   51.3797   49.0799 S   0  0  0  0  0  0  0  0  0  0  0  0
    1.2737   50.4684   47.8731 O   0  0  0  0  0  0  0  0  0  0  0  0
    2.1833   52.5291   48.6484 O   0  0  0  0  0  0  0  0  0  0  0  0
    2.1040   50.5879   50.3652 C   0  0  0  0  0  0  0  0  0  0  0  0
    2.2251   49.2068   50.4788 C   0  0  0  0  0  0  0  0  0  0  0  0
    2.9279   48.6540   51.5503 C   0  0  0  0  0  0  0  0  0  0  0  0
    3.5063   49.4811   52.5026 C   0  0  0  0  0  0  0  0  0  0  0  0
    4.2143   48.9765   53.5849 O   0  0  0  0  0  0  0  0  0  0  0  0
    3.6505   48.6596   54.8051 C   0  0  0  0  0  0  0  0  0  0  0  0
    4.5005   48.1661   55.7792 C   0  0  0  0  0  0  0  0  0  0  0  0
    4.0427   47.8151   57.0413 C   0  0  0  0  0  0  0  0  0  0  0  0
    2.7054   47.9597   57.3394 C   0  0  0  0  0  0  0  0  0  0  0  0
    2.0630   47.5324   58.9217 Cl  0  0  0  0  0  0  0  0  0  0  0  0
    1.8893   48.4516   56.3519 C   0  0  0  0  0  0  0  0  0  0  0  0
    2.3119   48.8064   55.0976 C   0  0  0  0  0  0  0  0  0  0  0  0
    3.3948   50.8588   52.4037 C   0  0  0  0  0  0  0  0  0  0  0  0
    2.6952   51.3951   51.3365 C   0  0  0  0  0  0  0  0  0  0  0  0
   -1.7736   50.0656   49.1058 C   0  0  0  0  0  0  0  0  0  0  0  0
   -1.7445   48.7564   49.8231 C   0  0  0  0  0  0  0  0  0  0  0  0
   -2.4133   48.7637   51.0207 O   0  0  0  0  0  0  0  0  0  0  0  0
   -2.0737   49.7873   51.8692 C   0  0  0  0  0  0  0  0  0  0  0  0
   -1.1196   50.8031   51.3400 C   0  0  0  0  0  0  0  0  0  0  0  0
  1  2  2  0
  2  3  1  0
  3  4  1  0
  2  5  1  0
  5  6  1  0
  6  7  1  0
  7  8  2  0
  7  9  2  0
  7 10  1  0
 10 11  2  0
 11 12  1  0
 12 13  2  0
 13 14  1  0
 14 15  1  0
 15 16  2  0
 16 17  1  0
 17 18  2  0
 18 19  1  0
 18 20  1  0
 20 21  2  0
 13 22  1  0
 22 23  2  0
  5 24  1  0
 24 25  1  0
 25 26  1  0
 26 27  1  0
 27 28  1  0
 28  5  1  0
 23 10  1  0
 21 15  1  0
M  END
>  <shape_align_shape_tanimoto>  (2) 
0.61333011629177181

>  <shape_align_color_tanimoto>  (2) 
0.13160101890495407

>  <metric>  (2) 
color

>  <metric_score>  (2) 
0.132

>  <template_pid>  (2) 
830C

>  <template_shape_score>  (2) 
0.613

>  <template_color_score>  (2) 
0.132

>  <template_combo_score>  (2) 
0.372

$$$$
830C_combo_pose
     RDKit          3D

 28 30  0  0  0  0  0  0  0  0999 V2000
   -2.3538   53.4785   49.7389 O   0  0  0  0  0  0  0  0  0  0  0  0
   -2.5982   52.2840   50.0782 C   0  0  0  0  0  0  0  0  0  0  0  0
   -3.8720   51.8730   50.5566 N   0  0  0  0  0  0  0  0  0  0  0  0
   -4.8501   52.7996   50.6492 O   0  0  0  0  0  0  0  0  0  0  0  0
   -1.4557   51.2858   49.9519 C   0  0  0  0  0  0  0  0  0  0  0  0
   -0.3409   52.0926   49.4099 C   0  0  0  0  0  0  0  0  0  0  0  0
    1.1875   51.4006   49.0560 S   0  0  0  0  0  0  0  0  0  0  0  0
    2.0774   52.5631   48.5969 O   0  0  0  0  0  0  0  0  0  0  0  0
    1.1718   50.5168   47.8064 O   0  0  0  0  0  0  0  0  0  0  0  0
    2.0620   50.6507   50.3329 C   0  0  0  0  0  0  0  0  0  0  0  0
    2.0595   49.2668   50.5698 C   0  0  0  0  0  0  0  0  0  0  0  0
    2.7788   48.7139   51.6116 C   0  0  0  0  0  0  0  0  0  0  0  0
    3.5305   49.4964   52.4640 C   0  0  0  0  0  0  0  0  0  0  0  0
    4.2238   48.8728   53.4839 O   0  0  0  0  0  0  0  0  0  0  0  0
    3.6532   48.6627   54.7482 C   0  0  0  0  0  0  0  0  0  0  0  0
    2.9738   47.4583   54.8953 C   0  0  0  0  0  0  0  0  0  0  0  0
    2.3708   47.1380   56.0915 C   0  0  0  0  0  0  0  0  0  0  0  0
    2.4631   48.0412   57.1240 C   0  0  0  0  0  0  0  0  0  0  0  0
    1.6909   47.6184   58.6377 Cl  0  0  0  0  0  0  0  0  0  0  0  0
    3.1449   49.2437   56.9675 C   0  0  0  0  0  0  0  0  0  0  0  0
    3.7591   49.5828   55.7675 C   0  0  0  0  0  0  0  0  0  0  0  0
    3.5444   50.8584   52.2459 C   0  0  0  0  0  0  0  0  0  0  0  0
    2.8312   51.4250   51.2098 C   0  0  0  0  0  0  0  0  0  0  0  0
   -1.1351   50.9074   51.3627 C   0  0  0  0  0  0  0  0  0  0  0  0
   -1.7772   49.6946   51.9029 C   0  0  0  0  0  0  0  0  0  0  0  0
   -2.1856   48.7259   51.0543 O   0  0  0  0  0  0  0  0  0  0  0  0
   -1.8264   48.7908   49.7475 C   0  0  0  0  0  0  0  0  0  0  0  0
   -1.8867   50.1382   49.1217 C   0  0  0  0  0  0  0  0  0  0  0  0
  1  2  2  0
  2  3  1  0
  3  4  1  0
  2  5  1  0
  5  6  1  0
  6  7  1  0
  7  8  2  0
  7  9  2  0
  7 10  1  0
 10 11  2  0
 11 12  1  0
 12 13  2  0
 13 14  1  0
 14 15  1  0
 15 16  2  0
 16 17  1  0
 17 18  2  0
 18 19  1  0
 18 20  1  0
 20 21  2  0
 13 22  1  0
 22 23  2  0
  5 24  1  0
 24 25  1  0
 25 26  1  0
 26 27  1  0
 27 28  1  0
 28  5  1  0
 23 10  1  0
 21 15  1  0
M  END
>  <shape_align_shape_tanimoto>  (3) 
0.66949136350225835

>  <shape_align_color_tanimoto>  (3) 
0.12039118258561811

>  <metric>  (3) 
combo

>  <metric_score>  (3) 
0.395

>  <template_pid>  (3) 
830C

>  <template_shape_score>  (3) 
0.669

>  <template_color_score>  (3) 
0.120

>  <template_combo_score>  (3) 
0.395

$$$$
