4IGR_shape_pose
     RDKit          3D

 17 16  0  0  0  0  0  0  0  0999 V2000
   22.6529  -19.5376  -24.7756 C   0  0  0  0  0  0  0  0  0  0  0  0
   22.2878  -19.0185  -26.0804 N   0  0  0  0  0  0  0  0  0  0  0  0
   23.1136  -18.1214  -26.7068 O   0  0  0  0  0  0  0  0  0  0  0  0
   21.0947  -19.4029  -26.7502 C   0  0  0  0  0  0  0  0  0  0  0  0
   20.7851  -18.9402  -27.8956 O   0  0  0  0  0  0  0  0  0  0  0  0
   20.1792  -20.3748  -26.0951 C   0  0  0  0  0  0  0  0  0  0  0  0
   18.9785  -20.6395  -26.9793 C   0  0  0  0  0  0  0  0  0  0  0  0
   17.9961  -21.6137  -26.4048 C   0  0  2  0  0  0  0  0  0  0  0  0
   16.8071  -21.9273  -27.1931 C   0  0  0  0  0  0  0  0  0  0  0  0
   15.8150  -20.9406  -27.6043 C   0  0  2  0  0  0  0  0  0  0  0  0
   16.2262  -19.8480  -28.4190 N   0  0  0  0  0  0  0  0  0  0  0  0
   14.8855  -20.4586  -26.5268 C   0  0  0  0  0  0  0  0  0  0  0  0
   14.0857  -21.3356  -26.0649 O   0  0  0  0  0  0  0  0  0  0  0  0
   14.9001  -19.1499  -26.0698 O   0  0  0  0  0  0  0  0  0  0  0  0
   17.7827  -21.4317  -24.9490 C   0  0  0  0  0  0  0  0  0  0  0  0
   16.6997  -21.0712  -24.4352 O   0  0  0  0  0  0  0  0  0  0  0  0
   18.8336  -21.6661  -24.0332 O   0  0  0  0  0  0  0  0  0  0  0  0
  1  2  1  0
  2  3  1  0
  2  4  1  0
  4  5  2  0
  4  6  1  0
  6  7  1  0
  8  7  1  6
  8  9  1  0
  9 10  1  0
 10 11  1  1
 10 12  1  0
 12 13  2  0
 12 14  1  0
  8 15  1  0
 15 16  2  0
 15 17  1  0
M  CHG  3  11   1  14  -1  17  -1
M  END
>  <shape_align_shape_tanimoto>  (1) 
0.78266615875285861

>  <shape_align_color_tanimoto>  (1) 
0.074267366144835825

>  <metric>  (1) 
shape

>  <metric_score>  (1) 
0.783

>  <template_pid>  (1) 
4IGR

>  <template_shape_score>  (1) 
0.783

>  <template_color_score>  (1) 
0.074

>  <template_combo_score>  (1) 
0.428

$$$$
4IGR_color_pose
     RDKit          3D

 17 16  0  0  0  0  0  0  0  0999 V2000
   14.6473  -19.1951  -25.3522 C   0  0  0  0  0  0  0  0  0  0  0  0
   14.9128  -20.1926  -26.3691 N   0  0  0  0  0  0  0  0  0  0  0  0
   14.0918  -20.1953  -27.4687 O   0  0  0  0  0  0  0  0  0  0  0  0
   15.9815  -21.1307  -26.2321 C   0  0  0  0  0  0  0  0  0  0  0  0
   16.1209  -21.9517  -27.1746 O   0  0  0  0  0  0  0  0  0  0  0  0
   16.8054  -21.0640  -25.0305 C   0  0  0  0  0  0  0  0  0  0  0  0
   18.1374  -21.6728  -25.0414 C   0  0  0  0  0  0  0  0  0  0  0  0
   19.1787  -21.0807  -25.9818 C   0  0  2  0  0  0  0  0  0  0  0  0
   19.4471  -19.6643  -25.6858 C   0  0  0  0  0  0  0  0  0  0  0  0
   20.4679  -18.8980  -26.4155 C   0  0  2  0  0  0  0  0  0  0  0  0
   20.3902  -18.7007  -27.8131 N   0  0  0  0  0  0  0  0  0  0  0  0
   21.8683  -19.3277  -26.0464 C   0  0  0  0  0  0  0  0  0  0  0  0
   22.8048  -18.5046  -26.2237 O   0  0  0  0  0  0  0  0  0  0  0  0
   22.1530  -20.5753  -25.5278 O   0  0  0  0  0  0  0  0  0  0  0  0
   18.9099  -21.4548  -27.3693 C   0  0  0  0  0  0  0  0  0  0  0  0
   18.5672  -20.7549  -28.3223 O   0  0  0  0  0  0  0  0  0  0  0  0
   19.0665  -22.8393  -27.6703 O   0  0  0  0  0  0  0  0  0  0  0  0
  1  2  1  0
  2  3  1  0
  2  4  1  0
  4  5  2  0
  4  6  1  0
  6  7  1  0
  8  7  1  1
  8  9  1  0
  9 10  1  0
 10 11  1  6
 10 12  1  0
 12 13  2  0
 12 14  1  0
  8 15  1  0
 15 16  2  0
 15 17  1  0
M  CHG  3  11   1  14  -1  17  -1
M  END
>  <shape_align_shape_tanimoto>  (2) 
0.71526327893363528

>  <shape_align_color_tanimoto>  (2) 
0.15945058933918527

>  <metric>  (2) 
color

>  <metric_score>  (2) 
0.159

>  <template_pid>  (2) 
4IGR

>  <template_shape_score>  (2) 
0.715

>  <template_color_score>  (2) 
0.159

>  <template_combo_score>  (2) 
0.437

$$$$
4IGR_combo_pose
     RDKit          3D

 17 16  0  0  0  0  0  0  0  0999 V2000
   14.0516  -20.0903  -24.8765 C   0  0  0  0  0  0  0  0  0  0  0  0
   14.4006  -20.6428  -26.1784 N   0  0  0  0  0  0  0  0  0  0  0  0
   13.5431  -20.4912  -27.2087 O   0  0  0  0  0  0  0  0  0  0  0  0
   15.6618  -21.3374  -26.3164 C   0  0  0  0  0  0  0  0  0  0  0  0
   15.8715  -21.7821  -27.4966 O   0  0  0  0  0  0  0  0  0  0  0  0
   16.5576  -21.4952  -25.1875 C   0  0  0  0  0  0  0  0  0  0  0  0
   17.9229  -20.9414  -25.1864 C   0  0  0  0  0  0  0  0  0  0  0  0
   18.7920  -21.3247  -26.3219 C   0  0  2  0  0  0  0  0  0  0  0  0
   20.2032  -20.8864  -26.2050 C   0  0  0  0  0  0  0  0  0  0  0  0
   20.5730  -19.4807  -26.0801 C   0  0  2  0  0  0  0  0  0  0  0  0
   20.2510  -18.5614  -27.1181 N   0  0  0  0  0  0  0  0  0  0  0  0
   22.0865  -19.4533  -25.9616 C   0  0  0  0  0  0  0  0  0  0  0  0
   22.6383  -19.9073  -24.9030 O   0  0  0  0  0  0  0  0  0  0  0  0
   22.8769  -18.9444  -26.9821 O   0  0  0  0  0  0  0  0  0  0  0  0
   18.3192  -20.6508  -27.6012 C   0  0  0  0  0  0  0  0  0  0  0  0
   18.6889  -21.1774  -28.7035 O   0  0  0  0  0  0  0  0  0  0  0  0
   17.5249  -19.5105  -27.5579 O   0  0  0  0  0  0  0  0  0  0  0  0
  1  2  1  0
  2  3  1  0
  2  4  1  0
  4  5  2  0
  4  6  1  0
  6  7  1  0
  8  7  1  1
  8  9  1  0
  9 10  1  0
 10 11  1  6
 10 12  1  0
 12 13  2  0
 12 14  1  0
  8 15  1  0
 15 16  2  0
 15 17  1  0
M  CHG  3  11   1  14  -1  17  -1
M  END
>  <shape_align_shape_tanimoto>  (3) 
0.77729585893096109

>  <shape_align_color_tanimoto>  (3) 
0.14995423676372652

>  <metric>  (3) 
combo

>  <metric_score>  (3) 
0.464

>  <template_pid>  (3) 
4IGR

>  <template_shape_score>  (3) 
0.777

>  <template_color_score>  (3) 
0.150

>  <template_combo_score>  (3) 
0.464

$$$$
