5F94_shape_pose
     RDKit          3D

 23 25  0  0  0  0  0  0  0  0999 V2000
  -21.1762    6.0892  -20.2521 C   0  0  0  0  0  0  0  0  0  0  0  0
  -21.8864    6.1538  -19.0530 O   0  0  0  0  0  0  0  0  0  0  0  0
  -21.7392    7.1390  -18.0808 C   0  0  0  0  0  0  0  0  0  0  0  0
  -20.8192    8.1429  -18.3043 C   0  0  0  0  0  0  0  0  0  0  0  0
  -20.6116    9.1575  -17.3914 C   0  0  0  0  0  0  0  0  0  0  0  0
  -21.3549    9.1166  -16.2692 N   0  0  0  0  0  0  0  0  0  0  0  0
  -22.2701    8.1333  -16.0282 C   0  0  0  0  0  0  0  0  0  0  0  0
  -22.5039    7.1095  -16.9110 C   0  0  0  0  0  0  0  0  0  0  0  0
  -23.4267    6.0611  -16.7376 N   0  0  0  0  0  0  0  0  0  0  0  0
  -24.2822    5.8572  -15.6377 C   0  0  0  0  0  0  0  0  0  0  0  0
  -24.2897    6.6469  -14.6602 O   0  0  0  0  0  0  0  0  0  0  0  0
  -25.2204    4.7272  -15.5397 C   0  0  0  0  0  0  0  0  0  0  0  0
  -26.0139    4.6222  -14.4165 C   0  0  0  0  0  0  0  0  0  0  0  0
  -26.9165    3.5570  -14.2955 C   0  0  0  0  0  0  0  0  0  0  0  0
  -27.0212    2.6210  -15.2750 N   0  0  0  0  0  0  0  0  0  0  0  0
  -26.2375    2.7323  -16.3750 C   0  0  0  0  0  0  0  0  0  0  0  0
  -26.3799    1.7296  -17.3765 N   0  0  0  0  0  0  0  0  0  0  0  0
  -27.3244    0.6851  -17.1641 C   0  0  0  0  0  0  0  0  0  0  0  0
  -28.0270    0.6118  -16.1455 O   0  0  0  0  0  0  0  0  0  0  0  0
  -27.4594   -0.3611  -18.2305 C   0  0  0  0  0  0  0  0  0  0  0  0
  -26.1582   -0.9649  -18.6657 C   0  0  0  0  0  0  0  0  0  0  0  0
  -26.8826   -0.1623  -19.5538 C   0  0  0  0  0  0  0  0  0  0  0  0
  -25.3431    3.7687  -16.5183 C   0  0  0  0  0  0  0  0  0  0  0  0
  1  2  1  0
  2  3  1  0
  3  4  2  0
  4  5  1  0
  5  6  2  0
  6  7  1  0
  7  8  2  0
  8  9  1  0
  9 10  1  0
 10 11  2  0
 10 12  1  0
 12 13  2  0
 13 14  1  0
 14 15  2  0
 15 16  1  0
 16 17  1  0
 17 18  1  0
 18 19  2  0
 18 20  1  0
 20 21  1  0
 21 22  2  0
 16 23  2  0
  8  3  1  0
 23 12  1  0
 22 20  1  0
M  END
>  <shape_align_shape_tanimoto>  (1) 
0.8595221451390237

>  <shape_align_color_tanimoto>  (1) 
0.074196087265584368

>  <metric>  (1) 
shape

>  <metric_score>  (1) 
0.860

>  <template_pid>  (1) 
5F94

>  <template_shape_score>  (1) 
0.860

>  <template_color_score>  (1) 
0.074

>  <template_combo_score>  (1) 
0.467

$$$$
5F94_color_pose
     RDKit          3D

 23 25  0  0  0  0  0  0  0  0999 V2000
  -28.8208   -0.1009  -15.6069 C   0  0  0  0  0  0  0  0  0  0  0  0
  -27.8344    0.7488  -16.0989 O   0  0  0  0  0  0  0  0  0  0  0  0
  -27.1630    0.5031  -17.2695 C   0  0  0  0  0  0  0  0  0  0  0  0
  -27.5169   -0.6591  -17.9623 C   0  0  0  0  0  0  0  0  0  0  0  0
  -26.8894   -0.9770  -19.1457 C   0  0  0  0  0  0  0  0  0  0  0  0
  -25.9417   -0.1228  -19.5801 N   0  0  0  0  0  0  0  0  0  0  0  0
  -25.5867    1.0006  -18.9280 C   0  0  0  0  0  0  0  0  0  0  0  0
  -26.1963    1.3768  -17.7102 C   0  0  0  0  0  0  0  0  0  0  0  0
  -25.7525    2.5582  -17.1201 N   0  0  0  0  0  0  0  0  0  0  0  0
  -26.1512    3.2024  -15.9290 C   0  0  0  0  0  0  0  0  0  0  0  0
  -27.0432    2.7258  -15.2002 O   0  0  0  0  0  0  0  0  0  0  0  0
  -25.5549    4.4747  -15.4536 C   0  0  0  0  0  0  0  0  0  0  0  0
  -26.0382    5.0009  -14.2678 C   0  0  0  0  0  0  0  0  0  0  0  0
  -25.5131    6.1901  -13.7794 C   0  0  0  0  0  0  0  0  0  0  0  0
  -24.5413    6.8087  -14.4719 N   0  0  0  0  0  0  0  0  0  0  0  0
  -24.0348    6.3374  -15.6337 C   0  0  0  0  0  0  0  0  0  0  0  0
  -23.0141    7.0966  -16.2505 N   0  0  0  0  0  0  0  0  0  0  0  0
  -22.3472    6.8000  -17.4530 C   0  0  0  0  0  0  0  0  0  0  0  0
  -22.5971    5.7838  -18.1396 O   0  0  0  0  0  0  0  0  0  0  0  0
  -21.2732    7.7151  -17.9846 C   0  0  0  0  0  0  0  0  0  0  0  0
  -20.3758    8.1902  -16.8804 C   0  0  0  0  0  0  0  0  0  0  0  0
  -21.2065    9.1161  -17.5292 C   0  0  0  0  0  0  0  0  0  0  0  0
  -24.5676    5.1562  -16.1036 C   0  0  0  0  0  0  0  0  0  0  0  0
  1  2  1  0
  2  3  1  0
  3  4  2  0
  4  5  1  0
  5  6  2  0
  6  7  1  0
  7  8  2  0
  8  9  1  0
  9 10  1  0
 10 11  2  0
 10 12  1  0
 12 13  2  0
 13 14  1  0
 14 15  2  0
 15 16  1  0
 16 17  1  0
 17 18  1  0
 18 19  2  0
 18 20  1  0
 20 21  1  0
 21 22  2  0
 16 23  2  0
  8  3  1  0
 23 12  1  0
 22 20  1  0
M  END
>  <shape_align_shape_tanimoto>  (2) 
0.8458365499048327

>  <shape_align_color_tanimoto>  (2) 
0.12413116169251996

>  <metric>  (2) 
color

>  <metric_score>  (2) 
0.124

>  <template_pid>  (2) 
5F94

>  <template_shape_score>  (2) 
0.846

>  <template_color_score>  (2) 
0.124

>  <template_combo_score>  (2) 
0.485

$$$$
5F94_combo_pose
     RDKit          3D

 23 25  0  0  0  0  0  0  0  0999 V2000
  -28.8208   -0.1009  -15.6069 C   0  0  0  0  0  0  0  0  0  0  0  0
  -27.8344    0.7488  -16.0989 O   0  0  0  0  0  0  0  0  0  0  0  0
  -27.1630    0.5031  -17.2695 C   0  0  0  0  0  0  0  0  0  0  0  0
  -27.5169   -0.6591  -17.9623 C   0  0  0  0  0  0  0  0  0  0  0  0
  -26.8894   -0.9770  -19.1457 C   0  0  0  0  0  0  0  0  0  0  0  0
  -25.9417   -0.1228  -19.5801 N   0  0  0  0  0  0  0  0  0  0  0  0
  -25.5867    1.0006  -18.9280 C   0  0  0  0  0  0  0  0  0  0  0  0
  -26.1963    1.3768  -17.7102 C   0  0  0  0  0  0  0  0  0  0  0  0
  -25.7525    2.5582  -17.1201 N   0  0  0  0  0  0  0  0  0  0  0  0
  -26.1512    3.2024  -15.9290 C   0  0  0  0  0  0  0  0  0  0  0  0
  -27.0432    2.7258  -15.2002 O   0  0  0  0  0  0  0  0  0  0  0  0
  -25.5549    4.4747  -15.4536 C   0  0  0  0  0  0  0  0  0  0  0  0
  -26.0382    5.0009  -14.2678 C   0  0  0  0  0  0  0  0  0  0  0  0
  -25.5131    6.1901  -13.7794 C   0  0  0  0  0  0  0  0  0  0  0  0
  -24.5413    6.8087  -14.4719 N   0  0  0  0  0  0  0  0  0  0  0  0
  -24.0348    6.3374  -15.6337 C   0  0  0  0  0  0  0  0  0  0  0  0
  -23.0141    7.0966  -16.2505 N   0  0  0  0  0  0  0  0  0  0  0  0
  -22.3472    6.8000  -17.4530 C   0  0  0  0  0  0  0  0  0  0  0  0
  -22.5971    5.7838  -18.1396 O   0  0  0  0  0  0  0  0  0  0  0  0
  -21.2732    7.7151  -17.9846 C   0  0  0  0  0  0  0  0  0  0  0  0
  -20.3758    8.1902  -16.8804 C   0  0  0  0  0  0  0  0  0  0  0  0
  -21.2065    9.1161  -17.5292 C   0  0  0  0  0  0  0  0  0  0  0  0
  -24.5676    5.1562  -16.1036 C   0  0  0  0  0  0  0  0  0  0  0  0
  1  2  1  0
  2  3  1  0
  3  4  2  0
  4  5  1  0
  5  6  2  0
  6  7  1  0
  7  8  2  0
  8  9  1  0
  9 10  1  0
 10 11  2  0
 10 12  1  0
 12 13  2  0
 13 14  1  0
 14 15  2  0
 15 16  1  0
 16 17  1  0
 17 18  1  0
 18 19  2  0
 18 20  1  0
 20 21  1  0
 21 22  2  0
 16 23  2  0
  8  3  1  0
 23 12  1  0
 22 20  1  0
M  END
>  <shape_align_shape_tanimoto>  (3) 
0.8458365499048327

>  <shape_align_color_tanimoto>  (3) 
0.12413116169251996

>  <metric>  (3) 
combo

>  <metric_score>  (3) 
0.485

>  <template_pid>  (3) 
5F94

>  <template_shape_score>  (3) 
0.846

>  <template_color_score>  (3) 
0.124

>  <template_combo_score>  (3) 
0.485

$$$$
