3KQB_shape_pose
     RDKit          3D

 41 45  0  0  0  0  0  0  0  0999 V2000
   12.5695  -11.9704   25.2214 C   0  0  0  0  0  0  0  0  0  0  0  0
   10.8727  -12.1558   24.6796 S   0  0  0  0  0  0  0  0  0  0  0  0
   10.1350  -12.6453   25.9352 O   0  0  0  0  0  0  0  0  0  0  0  0
   10.7036  -13.2215   23.6843 O   0  0  0  0  0  0  0  0  0  0  0  0
   10.2540  -10.6010   24.2718 C   0  0  0  0  0  0  0  0  0  0  0  0
    9.1237  -10.1237   24.8920 C   0  0  0  0  0  0  0  0  0  0  0  0
    8.5603   -8.8963   24.6490 C   0  0  0  0  0  0  0  0  0  0  0  0
    9.1618   -8.0838   23.7239 C   0  0  0  0  0  0  0  0  0  0  0  0
   10.2857   -8.5283   23.0899 C   0  0  0  0  0  0  0  0  0  0  0  0
   10.8583   -9.7848   23.3415 C   0  0  0  0  0  0  0  0  0  0  0  0
   12.0267  -10.1177   22.5859 C   0  0  0  0  0  0  0  0  0  0  0  0
   13.1373   -9.2724   22.7263 C   0  0  0  0  0  0  0  0  0  0  0  0
   14.3050   -9.4914   22.0195 C   0  0  0  0  0  0  0  0  0  0  0  0
   14.4117  -10.5461   21.1566 C   0  0  0  0  0  0  0  0  0  0  0  0
   15.5812  -10.8374   20.3940 N   0  0  0  0  0  0  0  0  0  0  0  0
   16.5400  -11.6916   20.9805 C   0  0  0  0  0  0  0  0  0  0  0  0
   16.2651  -12.1273   22.1525 O   0  0  0  0  0  0  0  0  0  0  0  0
   17.7671  -12.0692   20.3220 C   0  0  0  0  0  0  0  0  0  0  0  0
   18.2074  -11.6741   19.0502 C   0  0  0  0  0  0  0  0  0  0  0  0
   19.4306  -12.2724   18.8253 C   0  0  0  0  0  0  0  0  0  0  0  0
   20.3244  -12.1936   17.6541 C   0  0  0  0  0  0  0  0  0  0  0  0
   19.8414  -13.1331   16.7351 F   0  0  0  0  0  0  0  0  0  0  0  0
   21.6311  -12.4643   18.0057 F   0  0  0  0  0  0  0  0  0  0  0  0
   20.1880  -10.9456   17.0685 F   0  0  0  0  0  0  0  0  0  0  0  0
   19.7019  -12.9975   19.9311 N   0  0  0  0  0  0  0  0  0  0  0  0
   18.7155  -12.8720   20.8089 N   0  0  0  0  0  0  0  0  0  0  0  0
   18.7291  -13.5283   22.0725 C   0  0  0  0  0  0  0  0  0  0  0  0
   17.7313  -14.4791   22.2839 C   0  0  0  0  0  0  0  0  0  0  0  0
   17.6441  -15.1802   23.4717 C   0  0  0  0  0  0  0  0  0  0  0  0
   18.5919  -14.8974   24.4439 C   0  0  0  0  0  0  0  0  0  0  0  0
   19.5879  -13.9556   24.2465 C   0  0  0  0  0  0  0  0  0  0  0  0
   20.5819  -13.6678   25.2836 C   0  0  0  0  0  0  0  0  0  0  0  0
   20.6298  -14.2697   26.4983 N   0  0  0  0  0  0  0  0  0  0  0  0
   21.6528  -13.7844   27.2079 N   0  0  0  0  0  0  0  0  0  0  0  0
   22.2380  -12.8781   26.4245 C   0  0  0  0  0  0  0  0  0  0  0  0
   23.2621  -12.1922   26.7565 O   0  0  0  0  0  0  0  0  0  0  0  0
   21.6037  -12.7898   25.2484 N   0  0  0  0  0  0  0  0  0  0  0  0
   19.6700  -13.2543   23.0505 C   0  0  0  0  0  0  0  0  0  0  0  0
   13.3351  -11.4023   20.9915 C   0  0  0  0  0  0  0  0  0  0  0  0
   13.4014  -12.4684   20.1389 F   0  0  0  0  0  0  0  0  0  0  0  0
   12.1780  -11.1596   21.7112 C   0  0  0  0  0  0  0  0  0  0  0  0
  1  2  1  0
  2  3  2  0
  2  4  2  0
  2  5  1  0
  5  6  2  0
  6  7  1  0
  7  8  2  0
  8  9  1  0
  9 10  2  0
 10 11  1  0
 11 12  2  0
 12 13  1  0
 13 14  2  0
 14 15  1  0
 15 16  1  0
 16 17  2  0
 16 18  1  0
 18 19  2  0
 19 20  1  0
 20 21  1  0
 21 22  1  0
 21 23  1  0
 21 24  1  0
 20 25  2  0
 25 26  1  0
 26 27  1  0
 27 28  2  0
 28 29  1  0
 29 30  2  0
 30 31  1  0
 31 32  1  0
 32 33  2  0
 33 34  1  0
 34 35  1  0
 35 36  2  0
 35 37  1  0
 31 38  2  0
 14 39  1  0
 39 40  1  0
 39 41  2  0
 10  5  1  0
 41 11  1  0
 26 18  1  0
 38 27  1  0
 37 32  1  0
M  END
>  <shape_align_shape_tanimoto>  (1) 
0.5281954311833329

>  <shape_align_color_tanimoto>  (1) 
0.036873277918270275

>  <metric>  (1) 
shape

>  <metric_score>  (1) 
0.528

>  <template_pid>  (1) 
3KQB

>  <template_shape_score>  (1) 
0.528

>  <template_color_score>  (1) 
0.037

>  <template_combo_score>  (1) 
0.283

$$$$
3KQB_color_pose
     RDKit          3D

 41 45  0  0  0  0  0  0  0  0999 V2000
    9.6020   -8.6956   20.9874 C   0  0  0  0  0  0  0  0  0  0  0  0
    8.6172   -9.9313   21.8069 S   0  0  0  0  0  0  0  0  0  0  0  0
    8.6069  -11.2462   21.1342 O   0  0  0  0  0  0  0  0  0  0  0  0
    7.1761   -9.4135   21.6713 O   0  0  0  0  0  0  0  0  0  0  0  0
    9.0282  -10.0625   23.4853 C   0  0  0  0  0  0  0  0  0  0  0  0
    8.0153   -9.8895   24.4364 C   0  0  0  0  0  0  0  0  0  0  0  0
    8.2451   -9.9602   25.7818 C   0  0  0  0  0  0  0  0  0  0  0  0
    9.5256  -10.2116   26.2040 C   0  0  0  0  0  0  0  0  0  0  0  0
   10.5202  -10.3819   25.2808 C   0  0  0  0  0  0  0  0  0  0  0  0
   10.2957  -10.3118   23.8987 C   0  0  0  0  0  0  0  0  0  0  0  0
   11.4441  -10.5297   23.0572 C   0  0  0  0  0  0  0  0  0  0  0  0
   12.5088   -9.6323   23.2035 C   0  0  0  0  0  0  0  0  0  0  0  0
   13.6686   -9.7659   22.4676 C   0  0  0  0  0  0  0  0  0  0  0  0
   13.8269  -10.7907   21.5561 C   0  0  0  0  0  0  0  0  0  0  0  0
   15.0139  -10.9460   20.7872 N   0  0  0  0  0  0  0  0  0  0  0  0
   16.0627  -11.7384   21.3129 C   0  0  0  0  0  0  0  0  0  0  0  0
   15.8829  -12.2653   22.4418 O   0  0  0  0  0  0  0  0  0  0  0  0
   17.2853  -11.9060   20.5349 C   0  0  0  0  0  0  0  0  0  0  0  0
   17.5750  -11.3714   19.2941 C   0  0  0  0  0  0  0  0  0  0  0  0
   18.8305  -11.7766   18.9239 C   0  0  0  0  0  0  0  0  0  0  0  0
   19.5090  -11.4139   17.6539 C   0  0  0  0  0  0  0  0  0  0  0  0
   20.8524  -11.7448   17.6947 F   0  0  0  0  0  0  0  0  0  0  0  0
   18.9592  -12.0791   16.5793 F   0  0  0  0  0  0  0  0  0  0  0  0
   19.3985  -10.0343   17.4662 F   0  0  0  0  0  0  0  0  0  0  0  0
   19.2942  -12.5429   19.9215 N   0  0  0  0  0  0  0  0  0  0  0  0
   18.3722  -12.6199   20.8824 N   0  0  0  0  0  0  0  0  0  0  0  0
   18.5835  -13.3699   22.0743 C   0  0  0  0  0  0  0  0  0  0  0  0
   17.7013  -14.4333   22.2894 C   0  0  0  0  0  0  0  0  0  0  0  0
   17.8043  -15.2349   23.4100 C   0  0  0  0  0  0  0  0  0  0  0  0
   18.8098  -14.9596   24.3242 C   0  0  0  0  0  0  0  0  0  0  0  0
   19.6748  -13.9070   24.1010 C   0  0  0  0  0  0  0  0  0  0  0  0
   20.7138  -13.6660   25.0995 C   0  0  0  0  0  0  0  0  0  0  0  0
   21.6710  -12.7203   25.1236 N   0  0  0  0  0  0  0  0  0  0  0  0
   22.4111  -12.8697   26.2321 N   0  0  0  0  0  0  0  0  0  0  0  0
   21.9166  -13.9186   26.9131 C   0  0  0  0  0  0  0  0  0  0  0  0
   22.3573  -14.3646   28.0152 O   0  0  0  0  0  0  0  0  0  0  0  0
   20.8739  -14.4042   26.2129 N   0  0  0  0  0  0  0  0  0  0  0  0
   19.5725  -13.1047   22.9804 C   0  0  0  0  0  0  0  0  0  0  0  0
   12.7858  -11.6843   21.4007 C   0  0  0  0  0  0  0  0  0  0  0  0
   12.9175  -12.6955   20.5146 F   0  0  0  0  0  0  0  0  0  0  0  0
   11.6212  -11.5352   22.1523 C   0  0  0  0  0  0  0  0  0  0  0  0
  1  2  1  0
  2  3  2  0
  2  4  2  0
  2  5  1  0
  5  6  2  0
  6  7  1  0
  7  8  2  0
  8  9  1  0
  9 10  2  0
 10 11  1  0
 11 12  2  0
 12 13  1  0
 13 14  2  0
 14 15  1  0
 15 16  1  0
 16 17  2  0
 16 18  1  0
 18 19  2  0
 19 20  1  0
 20 21  1  0
 21 22  1  0
 21 23  1  0
 21 24  1  0
 20 25  2  0
 25 26  1  0
 26 27  1  0
 27 28  2  0
 28 29  1  0
 29 30  2  0
 30 31  1  0
 31 32  1  0
 32 33  2  0
 33 34  1  0
 34 35  1  0
 35 36  2  0
 35 37  1  0
 31 38  2  0
 14 39  1  0
 39 40  1  0
 39 41  2  0
 10  5  1  0
 41 11  1  0
 26 18  1  0
 38 27  1  0
 37 32  1  0
M  END
>  <shape_align_shape_tanimoto>  (2) 
0.50055271805217127

>  <shape_align_color_tanimoto>  (2) 
0.09398609939215137

>  <metric>  (2) 
color

>  <metric_score>  (2) 
0.094

>  <template_pid>  (2) 
3KQB

>  <template_shape_score>  (2) 
0.501

>  <template_color_score>  (2) 
0.094

>  <template_combo_score>  (2) 
0.297

$$$$
3KQB_combo_pose
     RDKit          3D

 41 45  0  0  0  0  0  0  0  0999 V2000
    9.6020   -8.6956   20.9874 C   0  0  0  0  0  0  0  0  0  0  0  0
    8.6172   -9.9313   21.8069 S   0  0  0  0  0  0  0  0  0  0  0  0
    8.6069  -11.2462   21.1342 O   0  0  0  0  0  0  0  0  0  0  0  0
    7.1761   -9.4135   21.6713 O   0  0  0  0  0  0  0  0  0  0  0  0
    9.0282  -10.0625   23.4853 C   0  0  0  0  0  0  0  0  0  0  0  0
    8.0153   -9.8895   24.4364 C   0  0  0  0  0  0  0  0  0  0  0  0
    8.2451   -9.9602   25.7818 C   0  0  0  0  0  0  0  0  0  0  0  0
    9.5256  -10.2116   26.2040 C   0  0  0  0  0  0  0  0  0  0  0  0
   10.5202  -10.3819   25.2808 C   0  0  0  0  0  0  0  0  0  0  0  0
   10.2957  -10.3118   23.8987 C   0  0  0  0  0  0  0  0  0  0  0  0
   11.4441  -10.5297   23.0572 C   0  0  0  0  0  0  0  0  0  0  0  0
   12.5088   -9.6323   23.2035 C   0  0  0  0  0  0  0  0  0  0  0  0
   13.6686   -9.7659   22.4676 C   0  0  0  0  0  0  0  0  0  0  0  0
   13.8269  -10.7907   21.5561 C   0  0  0  0  0  0  0  0  0  0  0  0
   15.0139  -10.9460   20.7872 N   0  0  0  0  0  0  0  0  0  0  0  0
   16.0627  -11.7384   21.3129 C   0  0  0  0  0  0  0  0  0  0  0  0
   15.8829  -12.2653   22.4418 O   0  0  0  0  0  0  0  0  0  0  0  0
   17.2853  -11.9060   20.5349 C   0  0  0  0  0  0  0  0  0  0  0  0
   17.5750  -11.3714   19.2941 C   0  0  0  0  0  0  0  0  0  0  0  0
   18.8305  -11.7766   18.9239 C   0  0  0  0  0  0  0  0  0  0  0  0
   19.5090  -11.4139   17.6539 C   0  0  0  0  0  0  0  0  0  0  0  0
   20.8524  -11.7448   17.6947 F   0  0  0  0  0  0  0  0  0  0  0  0
   18.9592  -12.0791   16.5793 F   0  0  0  0  0  0  0  0  0  0  0  0
   19.3985  -10.0343   17.4662 F   0  0  0  0  0  0  0  0  0  0  0  0
   19.2942  -12.5429   19.9215 N   0  0  0  0  0  0  0  0  0  0  0  0
   18.3722  -12.6199   20.8824 N   0  0  0  0  0  0  0  0  0  0  0  0
   18.5835  -13.3699   22.0743 C   0  0  0  0  0  0  0  0  0  0  0  0
   17.7013  -14.4333   22.2894 C   0  0  0  0  0  0  0  0  0  0  0  0
   17.8043  -15.2349   23.4100 C   0  0  0  0  0  0  0  0  0  0  0  0
   18.8098  -14.9596   24.3242 C   0  0  0  0  0  0  0  0  0  0  0  0
   19.6748  -13.9070   24.1010 C   0  0  0  0  0  0  0  0  0  0  0  0
   20.7138  -13.6660   25.0995 C   0  0  0  0  0  0  0  0  0  0  0  0
   21.6710  -12.7203   25.1236 N   0  0  0  0  0  0  0  0  0  0  0  0
   22.4111  -12.8697   26.2321 N   0  0  0  0  0  0  0  0  0  0  0  0
   21.9166  -13.9186   26.9131 C   0  0  0  0  0  0  0  0  0  0  0  0
   22.3573  -14.3646   28.0152 O   0  0  0  0  0  0  0  0  0  0  0  0
   20.8739  -14.4042   26.2129 N   0  0  0  0  0  0  0  0  0  0  0  0
   19.5725  -13.1047   22.9804 C   0  0  0  0  0  0  0  0  0  0  0  0
   12.7858  -11.6843   21.4007 C   0  0  0  0  0  0  0  0  0  0  0  0
   12.9175  -12.6955   20.5146 F   0  0  0  0  0  0  0  0  0  0  0  0
   11.6212  -11.5352   22.1523 C   0  0  0  0  0  0  0  0  0  0  0  0
  1  2  1  0
  2  3  2  0
  2  4  2  0
  2  5  1  0
  5  6  2  0
  6  7  1  0
  7  8  2  0
  8  9  1  0
  9 10  2  0
 10 11  1  0
 11 12  2  0
 12 13  1  0
 13 14  2  0
 14 15  1  0
 15 16  1  0
 16 17  2  0
 16 18  1  0
 18 19  2  0
 19 20  1  0
 20 21  1  0
 21 22  1  0
 21 23  1  0
 21 24  1  0
 20 25  2  0
 25 26  1  0
 26 27  1  0
 27 28  2  0
 28 29  1  0
 29 30  2  0
 30 31  1  0
 31 32  1  0
 32 33  2  0
 33 34  1  0
 34 35  1  0
 35 36  2  0
 35 37  1  0
 31 38  2  0
 14 39  1  0
 39 40  1  0
 39 41  2  0
 10  5  1  0
 41 11  1  0
 26 18  1  0
 38 27  1  0
 37 32  1  0
M  END
>  <shape_align_shape_tanimoto>  (3) 
0.50055271805217127

>  <shape_align_color_tanimoto>  (3) 
0.09398609939215137

>  <metric>  (3) 
combo

>  <metric_score>  (3) 
0.297

>  <template_pid>  (3) 
3KQB

>  <template_shape_score>  (3) 
0.501

>  <template_color_score>  (3) 
0.094

>  <template_combo_score>  (3) 
0.297

$$$$
