2YDK_shape_pose
     RDKit          3D

 24 26  0  0  0  0  0  0  0  0999 V2000
    4.3964   -0.6998   21.7349 N   0  0  0  0  0  0  0  0  0  0  0  0
    5.0522   -1.7157   20.9875 C   0  0  0  0  0  0  0  0  0  0  0  0
    5.6231   -2.7025   21.5537 O   0  0  0  0  0  0  0  0  0  0  0  0
    5.0595   -1.6081   19.5652 N   0  0  0  0  0  0  0  0  0  0  0  0
    5.6685   -2.5418   18.7538 C   0  0  0  0  0  0  0  0  0  0  0  0
    7.4376   -2.4532   18.2066 S   0  0  0  0  0  0  0  0  0  0  0  0
    7.3597   -3.9096   17.2922 C   0  0  0  0  0  0  0  0  0  0  0  0
    8.4717   -4.5124   16.5228 C   0  0  0  0  0  0  0  0  0  0  0  0
    8.3136   -5.6790   15.8233 C   0  0  0  0  0  0  0  0  0  0  0  0
    9.3276   -6.2723   15.0934 C   0  0  0  0  0  0  0  0  0  0  0  0
   10.5519   -5.6103   15.1026 C   0  0  0  0  0  0  0  0  0  0  0  0
   10.7424   -4.4290   15.8006 C   0  0  0  0  0  0  0  0  0  0  0  0
    9.6890   -3.8645   16.5253 C   0  0  0  0  0  0  0  0  0  0  0  0
    6.0937   -4.3882   17.4156 C   0  0  0  0  0  0  0  0  0  0  0  0
    5.2220   -3.6943   18.1617 C   0  0  0  0  0  0  0  0  0  0  0  0
    3.8065   -4.1225   18.3688 C   0  0  0  0  0  0  0  0  0  0  0  0
    3.0690   -3.4025   19.0860 O   0  0  0  0  0  0  0  0  0  0  0  0
    3.2828   -5.2927   17.7916 N   0  0  0  0  0  0  0  0  0  0  0  0
    1.9002   -5.6990   18.0014 C   0  0  1  0  0  0  0  0  0  0  0  0
    1.1880   -5.8994   16.6678 C   0  0  0  0  0  0  0  0  0  0  0  0
    2.0342   -6.7701   15.8030 C   0  0  0  0  0  0  0  0  0  0  0  0
    2.4480   -8.0437   16.4545 C   0  0  0  0  0  0  0  0  0  0  0  0
    2.7623   -7.9692   17.8433 N   0  0  0  0  0  0  0  0  0  0  0  0
    1.9511   -7.0816   18.6228 C   0  0  0  0  0  0  0  0  0  0  0  0
  1  2  1  0
  2  3  2  0
  2  4  1  0
  4  5  1  0
  5  6  1  0
  6  7  1  0
  7  8  1  0
  8  9  2  0
  9 10  1  0
 10 11  2  0
 11 12  1  0
 12 13  2  0
  7 14  2  0
 14 15  1  0
 15 16  1  0
 16 17  2  0
 16 18  1  0
 19 18  1  6
 19 20  1  0
 20 21  1  0
 21 22  1  0
 22 23  1  0
 23 24  1  0
 15  5  2  0
 24 19  1  0
 13  8  1  0
M  CHG  1  23   1
M  END
>  <shape_align_shape_tanimoto>  (1) 
0.65261907618199699

>  <shape_align_color_tanimoto>  (1) 
0.018866078761573923

>  <metric>  (1) 
shape

>  <metric_score>  (1) 
0.653

>  <template_pid>  (1) 
2YDK

>  <template_shape_score>  (1) 
0.653

>  <template_color_score>  (1) 
0.019

>  <template_combo_score>  (1) 
0.336

$$$$
2YDK_color_pose
     RDKit          3D

 24 26  0  0  0  0  0  0  0  0999 V2000
    5.7561   -0.2551   20.6272 N   0  0  0  0  0  0  0  0  0  0  0  0
    5.1595   -1.4034   20.0062 C   0  0  0  0  0  0  0  0  0  0  0  0
    3.9605   -1.6343   20.2847 O   0  0  0  0  0  0  0  0  0  0  0  0
    5.9340   -2.2114   19.1227 N   0  0  0  0  0  0  0  0  0  0  0  0
    5.2828   -3.3251   18.5474 C   0  0  0  0  0  0  0  0  0  0  0  0
    3.6397   -3.7695   18.8350 S   0  0  0  0  0  0  0  0  0  0  0  0
    3.7185   -5.2554   17.7133 C   0  0  0  0  0  0  0  0  0  0  0  0
    2.5885   -6.1343   17.4897 C   0  0  0  0  0  0  0  0  0  0  0  0
    2.7353   -7.1988   16.6524 C   0  0  0  0  0  0  0  0  0  0  0  0
    1.6611   -8.0337   16.4403 C   0  0  0  0  0  0  0  0  0  0  0  0
    0.4505   -7.8111   17.0565 C   0  0  0  0  0  0  0  0  0  0  0  0
    0.3183   -6.7284   17.9017 C   0  0  0  0  0  0  0  0  0  0  0  0
    1.3903   -5.8886   18.1182 C   0  0  0  0  0  0  0  0  0  0  0  0
    5.0032   -5.2460   17.2400 C   0  0  0  0  0  0  0  0  0  0  0  0
    5.8451   -4.2958   17.6237 C   0  0  0  0  0  0  0  0  0  0  0  0
    7.2522   -4.1925   17.1738 C   0  0  0  0  0  0  0  0  0  0  0  0
    8.0053   -3.2734   17.5678 O   0  0  0  0  0  0  0  0  0  0  0  0
    7.7968   -5.1353   16.2772 N   0  0  0  0  0  0  0  0  0  0  0  0
    9.1657   -5.0654   15.8170 C   0  0  1  0  0  0  0  0  0  0  0  0
    9.9690   -6.2910   16.1495 C   0  0  0  0  0  0  0  0  0  0  0  0
   11.3691   -6.0700   15.6140 C   0  0  0  0  0  0  0  0  0  0  0  0
   11.5167   -4.7452   14.8981 C   0  0  0  0  0  0  0  0  0  0  0  0
   10.5205   -4.5267   13.8882 N   0  0  0  0  0  0  0  0  0  0  0  0
    9.1885   -4.8827   14.3192 C   0  0  0  0  0  0  0  0  0  0  0  0
  1  2  1  0
  2  3  2  0
  2  4  1  0
  4  5  1  0
  5  6  1  0
  6  7  1  0
  7  8  1  0
  8  9  2  0
  9 10  1  0
 10 11  2  0
 11 12  1  0
 12 13  2  0
  7 14  2  0
 14 15  1  0
 15 16  1  0
 16 17  2  0
 16 18  1  0
 19 18  1  6
 19 20  1  0
 20 21  1  0
 21 22  1  0
 22 23  1  0
 23 24  1  0
 15  5  2  0
 24 19  1  0
 13  8  1  0
M  CHG  1  23   1
M  END
>  <shape_align_shape_tanimoto>  (2) 
0.63691958453366804

>  <shape_align_color_tanimoto>  (2) 
0.093820165011209392

>  <metric>  (2) 
color

>  <metric_score>  (2) 
0.094

>  <template_pid>  (2) 
2YDK

>  <template_shape_score>  (2) 
0.637

>  <template_color_score>  (2) 
0.094

>  <template_combo_score>  (2) 
0.365

$$$$
2YDK_combo_pose
     RDKit          3D

 24 26  0  0  0  0  0  0  0  0999 V2000
    5.7561   -0.2551   20.6272 N   0  0  0  0  0  0  0  0  0  0  0  0
    5.1595   -1.4034   20.0062 C   0  0  0  0  0  0  0  0  0  0  0  0
    3.9605   -1.6343   20.2847 O   0  0  0  0  0  0  0  0  0  0  0  0
    5.9340   -2.2114   19.1227 N   0  0  0  0  0  0  0  0  0  0  0  0
    5.2828   -3.3251   18.5474 C   0  0  0  0  0  0  0  0  0  0  0  0
    3.6397   -3.7695   18.8350 S   0  0  0  0  0  0  0  0  0  0  0  0
    3.7185   -5.2554   17.7133 C   0  0  0  0  0  0  0  0  0  0  0  0
    2.5885   -6.1343   17.4897 C   0  0  0  0  0  0  0  0  0  0  0  0
    2.7353   -7.1988   16.6524 C   0  0  0  0  0  0  0  0  0  0  0  0
    1.6611   -8.0337   16.4403 C   0  0  0  0  0  0  0  0  0  0  0  0
    0.4505   -7.8111   17.0565 C   0  0  0  0  0  0  0  0  0  0  0  0
    0.3183   -6.7284   17.9017 C   0  0  0  0  0  0  0  0  0  0  0  0
    1.3903   -5.8886   18.1182 C   0  0  0  0  0  0  0  0  0  0  0  0
    5.0032   -5.2460   17.2400 C   0  0  0  0  0  0  0  0  0  0  0  0
    5.8451   -4.2958   17.6237 C   0  0  0  0  0  0  0  0  0  0  0  0
    7.2522   -4.1925   17.1738 C   0  0  0  0  0  0  0  0  0  0  0  0
    8.0053   -3.2734   17.5678 O   0  0  0  0  0  0  0  0  0  0  0  0
    7.7968   -5.1353   16.2772 N   0  0  0  0  0  0  0  0  0  0  0  0
    9.1657   -5.0654   15.8170 C   0  0  1  0  0  0  0  0  0  0  0  0
    9.9690   -6.2910   16.1495 C   0  0  0  0  0  0  0  0  0  0  0  0
   11.3691   -6.0700   15.6140 C   0  0  0  0  0  0  0  0  0  0  0  0
   11.5167   -4.7452   14.8981 C   0  0  0  0  0  0  0  0  0  0  0  0
   10.5205   -4.5267   13.8882 N   0  0  0  0  0  0  0  0  0  0  0  0
    9.1885   -4.8827   14.3192 C   0  0  0  0  0  0  0  0  0  0  0  0
  1  2  1  0
  2  3  2  0
  2  4  1  0
  4  5  1  0
  5  6  1  0
  6  7  1  0
  7  8  1  0
  8  9  2  0
  9 10  1  0
 10 11  2  0
 11 12  1  0
 12 13  2  0
  7 14  2  0
 14 15  1  0
 15 16  1  0
 16 17  2  0
 16 18  1  0
 19 18  1  6
 19 20  1  0
 20 21  1  0
 21 22  1  0
 22 23  1  0
 23 24  1  0
 15  5  2  0
 24 19  1  0
 13  8  1  0
M  CHG  1  23   1
M  END
>  <shape_align_shape_tanimoto>  (3) 
0.63691958453366804

>  <shape_align_color_tanimoto>  (3) 
0.093820165011209392

>  <metric>  (3) 
combo

>  <metric_score>  (3) 
0.365

>  <template_pid>  (3) 
2YDK

>  <template_shape_score>  (3) 
0.637

>  <template_color_score>  (3) 
0.094

>  <template_combo_score>  (3) 
0.365

$$$$
