4ZPF_shape_pose
     RDKit          3D

 37 41  0  0  0  0  0  0  0  0999 V2000
   33.0100   71.1717   17.7523 C   0  0  0  0  0  0  0  0  0  0  0  0
   32.7211   72.5098   18.4496 C   0  0  1  0  0  0  0  0  0  0  0  0
   33.6320   73.5711   17.8258 C   0  0  0  0  0  0  0  0  0  0  0  0
   33.2825   74.8721   18.3556 N   0  0  0  0  0  0  0  0  0  0  0  0
   31.4093   72.8394   18.1153 O   0  0  0  0  0  0  0  0  0  0  0  0
   30.3608   72.9998   18.9993 C   0  0  0  0  0  0  0  0  0  0  0  0
   30.4625   72.8541   20.3629 C   0  0  0  0  0  0  0  0  0  0  0  0
   29.3909   73.0223   21.2164 C   0  0  0  0  0  0  0  0  0  0  0  0
   28.1665   73.3515   20.6665 C   0  0  0  0  0  0  0  0  0  0  0  0
   28.0039   73.5127   19.2861 C   0  0  0  0  0  0  0  0  0  0  0  0
   26.6637   73.8583   18.7745 C   0  0  0  0  0  0  0  0  0  0  0  0
   26.3770   75.2560   18.7106 N   0  0  1  0  0  0  0  0  0  0  0  0
   26.6270   75.9179   20.0006 C   0  0  0  0  0  0  0  0  0  0  0  0
   26.2543   77.3571   19.8018 C   0  0  0  0  0  0  0  0  0  0  0  0
   27.3549   78.0457   19.0368 C   0  0  1  0  0  0  0  0  0  0  0  0
   27.9094   77.0698   18.0322 C   0  0  0  0  0  0  0  0  0  0  0  0
   26.9736   75.9748   17.6301 C   0  0  0  0  0  0  0  0  0  0  0  0
   26.9019   79.3042   18.4006 C   0  0  0  0  0  0  0  0  0  0  0  0
   25.8585   79.4519   17.4225 N   0  0  0  0  0  0  0  0  0  0  0  0
   25.1135   80.7014   17.3288 C   0  0  0  0  0  0  0  0  0  0  0  0
   25.9769   81.8887   17.0172 C   0  0  0  0  0  0  0  0  0  0  0  0
   25.0386   83.0250   16.6134 C   0  0  0  0  0  0  0  0  0  0  0  0
   24.5640   82.7085   15.2102 C   0  0  0  0  0  0  0  0  0  0  0  0
   24.2891   81.2280   15.0589 C   0  0  0  0  0  0  0  0  0  0  0  0
   23.9420   80.6049   16.4157 C   0  0  0  0  0  0  0  0  0  0  0  0
   27.5602   80.3253   18.8250 N   0  0  0  0  0  0  0  0  0  0  0  0
   28.5367   79.9567   19.7870 C   0  0  0  0  0  0  0  0  0  0  0  0
   29.3458   80.7122   20.3954 O   0  0  0  0  0  0  0  0  0  0  0  0
   28.3996   78.5345   19.9145 N   0  0  0  0  0  0  0  0  0  0  0  0
   29.2312   77.8062   20.8269 C   0  0  0  0  0  0  0  0  0  0  0  0
   30.4579   77.2905   20.4701 C   0  0  0  0  0  0  0  0  0  0  0  0
   31.2246   76.5965   21.3917 C   0  0  0  0  0  0  0  0  0  0  0  0
   30.7840   76.3970   22.7042 C   0  0  0  0  0  0  0  0  0  0  0  0
   29.5744   76.9056   23.0564 C   0  0  0  0  0  0  0  0  0  0  0  0
   29.0507   76.7652   24.3196 F   0  0  0  0  0  0  0  0  0  0  0  0
   28.8045   77.5979   22.1451 C   0  0  0  0  0  0  0  0  0  0  0  0
   29.1151   73.3301   18.4911 C   0  0  0  0  0  0  0  0  0  0  0  0
  2  1  1  6
  2  3  1  0
  3  4  1  0
  2  5  1  0
  5  6  1  0
  6  7  2  0
  7  8  1  0
  8  9  2  0
  9 10  1  0
 10 11  1  0
 12 11  1  1
 12 13  1  0
 13 14  1  0
 15 14  1  1
 15 16  1  0
 16 17  1  0
 15 18  1  0
 18 19  1  0
 19 20  1  0
 20 21  1  0
 21 22  1  0
 22 23  1  0
 23 24  1  0
 24 25  1  0
 18 26  2  0
 26 27  1  0
 27 28  2  0
 27 29  1  0
 29 30  1  0
 30 31  2  0
 31 32  1  0
 32 33  2  0
 33 34  1  0
 34 35  1  0
 34 36  2  0
 10 37  2  0
 37  6  1  0
 17 12  1  0
 25 20  1  0
 36 30  1  0
 29 15  1  0
M  CHG  2   4   1  12   1
M  END
>  <shape_align_shape_tanimoto>  (1) 
0.56564463441390811

>  <shape_align_color_tanimoto>  (1) 
0.005992171539604906

>  <metric>  (1) 
shape

>  <metric_score>  (1) 
0.566

>  <template_pid>  (1) 
4ZPF

>  <template_shape_score>  (1) 
0.566

>  <template_color_score>  (1) 
0.006

>  <template_combo_score>  (1) 
0.286

$$$$
4ZPF_color_pose
     RDKit          3D

 37 41  0  0  0  0  0  0  0  0999 V2000
   29.6054   72.7513   18.2201 C   0  0  0  0  0  0  0  0  0  0  0  0
   28.6398   73.6065   19.0225 C   0  0  1  0  0  0  0  0  0  0  0  0
   27.2765   72.9478   19.0566 C   0  0  0  0  0  0  0  0  0  0  0  0
   26.7294   72.6936   17.7589 N   0  0  0  0  0  0  0  0  0  0  0  0
   29.1410   73.8384   20.3039 O   0  0  0  0  0  0  0  0  0  0  0  0
   29.4727   75.0352   20.8807 C   0  0  0  0  0  0  0  0  0  0  0  0
   29.9569   74.9979   22.1876 C   0  0  0  0  0  0  0  0  0  0  0  0
   30.3180   76.1493   22.8548 C   0  0  0  0  0  0  0  0  0  0  0  0
   30.2040   77.3740   22.2304 C   0  0  0  0  0  0  0  0  0  0  0  0
   29.7219   77.4483   20.9196 C   0  0  0  0  0  0  0  0  0  0  0  0
   29.6281   78.7772   20.3116 C   0  0  0  0  0  0  0  0  0  0  0  0
   28.3562   79.4492   20.5352 N   0  0  1  0  0  0  0  0  0  0  0  0
   28.3753   80.7496   19.9097 C   0  0  0  0  0  0  0  0  0  0  0  0
   27.1323   81.0818   19.1526 C   0  0  0  0  0  0  0  0  0  0  0  0
   26.6488   80.0393   18.2046 C   0  0  1  0  0  0  0  0  0  0  0  0
   27.0036   78.6456   18.6554 C   0  0  0  0  0  0  0  0  0  0  0  0
   27.2337   78.6512   20.1492 C   0  0  0  0  0  0  0  0  0  0  0  0
   25.1901   80.2106   17.9918 C   0  0  0  0  0  0  0  0  0  0  0  0
   24.1639   80.0513   18.9784 N   0  0  0  0  0  0  0  0  0  0  0  0
   22.8835   79.5037   18.6256 C   0  0  0  0  0  0  0  0  0  0  0  0
   22.0422   79.4623   19.8874 C   0  0  0  0  0  0  0  0  0  0  0  0
   20.9033   78.4921   19.6915 C   0  0  0  0  0  0  0  0  0  0  0  0
   20.7181   78.2065   18.2345 C   0  0  0  0  0  0  0  0  0  0  0  0
   20.8331   79.4220   17.3457 C   0  0  0  0  0  0  0  0  0  0  0  0
   22.1040   80.2211   17.5938 C   0  0  0  0  0  0  0  0  0  0  0  0
   24.9185   80.5330   16.7762 N   0  0  0  0  0  0  0  0  0  0  0  0
   26.0960   80.6335   15.9831 C   0  0  0  0  0  0  0  0  0  0  0  0
   26.1801   80.9282   14.7612 O   0  0  0  0  0  0  0  0  0  0  0  0
   27.1643   80.3259   16.8804 N   0  0  0  0  0  0  0  0  0  0  0  0
   28.5279   80.3250   16.4280 C   0  0  0  0  0  0  0  0  0  0  0  0
   29.3167   81.4553   16.4573 C   0  0  0  0  0  0  0  0  0  0  0  0
   30.6284   81.4718   16.0266 C   0  0  0  0  0  0  0  0  0  0  0  0
   31.1963   80.2948   15.5355 C   0  0  0  0  0  0  0  0  0  0  0  0
   30.4265   79.1349   15.4923 C   0  0  0  0  0  0  0  0  0  0  0  0
   31.0350   78.0331   15.0073 F   0  0  0  0  0  0  0  0  0  0  0  0
   29.1204   79.1612   15.9321 C   0  0  0  0  0  0  0  0  0  0  0  0
   29.3692   76.2682   20.2822 C   0  0  0  0  0  0  0  0  0  0  0  0
  2  1  1  6
  2  3  1  0
  3  4  1  0
  2  5  1  0
  5  6  1  0
  6  7  2  0
  7  8  1  0
  8  9  2  0
  9 10  1  0
 10 11  1  0
 12 11  1  6
 12 13  1  0
 13 14  1  0
 15 14  1  1
 15 16  1  0
 16 17  1  0
 15 18  1  0
 18 19  1  0
 19 20  1  0
 20 21  1  0
 21 22  1  0
 22 23  1  0
 23 24  1  0
 24 25  1  0
 18 26  2  0
 26 27  1  0
 27 28  2  0
 27 29  1  0
 29 30  1  0
 30 31  2  0
 31 32  1  0
 32 33  2  0
 33 34  1  0
 34 35  1  0
 34 36  2  0
 10 37  2  0
 37  6  1  0
 17 12  1  0
 25 20  1  0
 36 30  1  0
 29 15  1  0
M  CHG  2   4   1  12   1
M  END
>  <shape_align_shape_tanimoto>  (2) 
0.50030634009010666

>  <shape_align_color_tanimoto>  (2) 
0.10580580832123124

>  <metric>  (2) 
color

>  <metric_score>  (2) 
0.106

>  <template_pid>  (2) 
4ZPF

>  <template_shape_score>  (2) 
0.500

>  <template_color_score>  (2) 
0.106

>  <template_combo_score>  (2) 
0.303

$$$$
4ZPF_combo_pose
     RDKit          3D

 37 41  0  0  0  0  0  0  0  0999 V2000
   23.5756   79.7004   14.5380 C   0  0  0  0  0  0  0  0  0  0  0  0
   23.9494   80.9015   15.4183 C   0  0  1  0  0  0  0  0  0  0  0  0
   22.6510   81.6646   15.6072 C   0  0  0  0  0  0  0  0  0  0  0  0
   22.8005   82.8643   16.3722 N   0  0  0  0  0  0  0  0  0  0  0  0
   24.5243   80.5065   16.6174 O   0  0  0  0  0  0  0  0  0  0  0  0
   25.8010   80.7455   17.0714 C   0  0  0  0  0  0  0  0  0  0  0  0
   26.7661   81.4451   16.3876 C   0  0  0  0  0  0  0  0  0  0  0  0
   28.0215   81.6352   16.9228 C   0  0  0  0  0  0  0  0  0  0  0  0
   28.3529   81.1295   18.1642 C   0  0  0  0  0  0  0  0  0  0  0  0
   27.3969   80.4256   18.8633 C   0  0  0  0  0  0  0  0  0  0  0  0
   27.6401   79.8347   20.2075 C   0  0  0  0  0  0  0  0  0  0  0  0
   28.1438   78.4753   20.1364 N   0  0  1  0  0  0  0  0  0  0  0  0
   29.5909   78.5508   20.2249 C   0  0  0  0  0  0  0  0  0  0  0  0
   30.2374   77.2024   20.2266 C   0  0  0  0  0  0  0  0  0  0  0  0
   29.5213   76.1567   21.0450 C   0  0  1  0  0  0  0  0  0  0  0  0
   28.0381   76.2705   21.0514 C   0  0  0  0  0  0  0  0  0  0  0  0
   27.5999   77.6776   21.2292 C   0  0  0  0  0  0  0  0  0  0  0  0
   29.9329   74.8357   20.4412 C   0  0  0  0  0  0  0  0  0  0  0  0
   29.5794   74.3600   19.1292 N   0  0  0  0  0  0  0  0  0  0  0  0
   29.4989   72.9362   18.8329 C   0  0  0  0  0  0  0  0  0  0  0  0
   29.1149   72.7175   17.4066 C   0  0  0  0  0  0  0  0  0  0  0  0
   27.6256   72.5558   17.2359 C   0  0  0  0  0  0  0  0  0  0  0  0
   26.8457   73.3123   18.2803 C   0  0  0  0  0  0  0  0  0  0  0  0
   27.1364   72.8303   19.6746 C   0  0  0  0  0  0  0  0  0  0  0  0
   28.5038   72.2133   19.7156 C   0  0  0  0  0  0  0  0  0  0  0  0
   30.6562   74.1663   21.2580 N   0  0  0  0  0  0  0  0  0  0  0  0
   30.8650   74.8427   22.4856 C   0  0  0  0  0  0  0  0  0  0  0  0
   31.5277   74.4455   23.4780 O   0  0  0  0  0  0  0  0  0  0  0  0
   30.1461   76.0853   22.3353 N   0  0  0  0  0  0  0  0  0  0  0  0
   30.1423   77.0351   23.4150 C   0  0  0  0  0  0  0  0  0  0  0  0
   31.0831   78.0381   23.5164 C   0  0  0  0  0  0  0  0  0  0  0  0
   31.0963   78.9523   24.5526 C   0  0  0  0  0  0  0  0  0  0  0  0
   30.1334   78.8743   25.5394 C   0  0  0  0  0  0  0  0  0  0  0  0
   29.1763   77.8824   25.4689 C   0  0  0  0  0  0  0  0  0  0  0  0
   28.2474   77.8352   26.4533 F   0  0  0  0  0  0  0  0  0  0  0  0
   29.1893   76.9859   24.4237 C   0  0  0  0  0  0  0  0  0  0  0  0
   26.1195   80.2269   18.3291 C   0  0  0  0  0  0  0  0  0  0  0  0
  2  1  1  6
  2  3  1  0
  3  4  1  0
  2  5  1  0
  5  6  1  0
  6  7  2  0
  7  8  1  0
  8  9  2  0
  9 10  1  0
 10 11  1  0
 12 11  1  1
 12 13  1  0
 13 14  1  0
 15 14  1  6
 15 16  1  0
 16 17  1  0
 15 18  1  0
 18 19  1  0
 19 20  1  0
 20 21  1  0
 21 22  1  0
 22 23  1  0
 23 24  1  0
 24 25  1  0
 18 26  2  0
 26 27  1  0
 27 28  2  0
 27 29  1  0
 29 30  1  0
 30 31  2  0
 31 32  1  0
 32 33  2  0
 33 34  1  0
 34 35  1  0
 34 36  2  0
 10 37  2  0
 37  6  1  0
 17 12  1  0
 25 20  1  0
 36 30  1  0
 29 15  1  0
M  CHG  2   4   1  12   1
M  END
>  <shape_align_shape_tanimoto>  (3) 
0.5644428130226391

>  <shape_align_color_tanimoto>  (3) 
0.043213531865945461

>  <metric>  (3) 
combo

>  <metric_score>  (3) 
0.304

>  <template_pid>  (3) 
4ZPF

>  <template_shape_score>  (3) 
0.564

>  <template_color_score>  (3) 
0.043

>  <template_combo_score>  (3) 
0.304

$$$$
