3O9E_shape_pose
     RDKit          3D

 40 43  0  0  0  0  0  0  0  0999 V2000
   18.0150   24.6329   14.9009 C   0  0  0  0  0  0  0  0  0  0  0  0
   18.7336   23.7155   15.8693 C   0  0  0  0  0  0  0  0  0  0  0  0
   19.2594   24.5082   17.0682 C   0  0  0  0  0  0  0  0  0  0  0  0
   20.2010   25.5597   16.5872 C   0  0  0  0  0  0  0  0  0  0  0  0
   21.3918   24.9970   15.8499 C   0  0  0  0  0  0  0  0  0  0  0  0
   18.1753   25.1014   17.9028 C   0  0  0  0  0  0  0  0  0  0  0  0
   17.2722   24.0993   18.4918 N   0  0  0  0  0  0  0  0  0  0  0  0
   15.9539   24.6911   18.4895 C   0  0  0  0  0  0  0  0  0  0  0  0
   14.8084   23.7801   18.6478 C   0  0  1  0  0  0  0  0  0  0  0  0
   13.6297   24.5686   18.6241 O   0  0  0  0  0  0  0  0  0  0  0  0
   14.6027   22.7340   17.6035 C   0  0  2  0  0  0  0  0  0  0  0  0
   14.5650   23.2589   16.2098 C   0  0  0  0  0  0  0  0  0  0  0  0
   14.3551   22.1593   15.2031 C   0  0  0  0  0  0  0  0  0  0  0  0
   15.4158   21.4884   14.6323 C   0  0  0  0  0  0  0  0  0  0  0  0
   15.1502   20.4864   13.7117 C   0  0  0  0  0  0  0  0  0  0  0  0
   13.8609   20.1495   13.3583 C   0  0  0  0  0  0  0  0  0  0  0  0
   12.7846   20.8281   13.9357 C   0  0  0  0  0  0  0  0  0  0  0  0
   13.0661   21.8179   14.8457 C   0  0  0  0  0  0  0  0  0  0  0  0
   13.4206   21.9108   17.9116 N   0  0  0  0  0  0  0  0  0  0  0  0
   13.5174   20.5351   18.2259 C   0  0  0  0  0  0  0  0  0  0  0  0
   14.6359   20.0053   18.2433 O   0  0  0  0  0  0  0  0  0  0  0  0
   12.3338   19.8608   18.4980 O   0  0  0  0  0  0  0  0  0  0  0  0
   12.3349   18.5370   18.8100 C   0  0  1  0  0  0  0  0  0  0  0  0
   11.8001   18.1720   20.1727 C   0  0  0  0  0  0  0  0  0  0  0  0
   11.4940   16.8339   20.1195 O   0  0  0  0  0  0  0  0  0  0  0  0
   11.8092   16.3619   18.8470 C   0  0  1  0  0  0  0  0  0  0  0  0
   10.8613   15.4844   18.3810 O   0  0  0  0  0  0  0  0  0  0  0  0
    9.6923   16.2388   18.4703 C   0  0  0  0  0  0  0  0  0  0  0  0
   10.0708   17.6563   18.0860 C   0  0  0  0  0  0  0  0  0  0  0  0
   11.5719   17.5823   17.9654 C   0  0  1  0  0  0  0  0  0  0  0  0
   17.8496   23.8488   20.0977 S   0  0  0  0  0  0  0  0  0  0  0  0
   16.8807   23.0142   20.9010 O   0  0  0  0  0  0  0  0  0  0  0  0
   17.8360   25.2018   20.7635 O   0  0  0  0  0  0  0  0  0  0  0  0
   19.4642   23.2400   20.1889 C   0  0  0  0  0  0  0  0  0  0  0  0
   20.5474   24.0843   20.3924 C   0  0  0  0  0  0  0  0  0  0  0  0
   21.8467   23.6205   20.4680 C   0  0  0  0  0  0  0  0  0  0  0  0
   22.0522   22.2664   20.3340 C   0  0  0  0  0  0  0  0  0  0  0  0
   23.4055   21.8141   20.4160 N   0  0  0  0  0  0  0  0  0  0  0  0
   20.9882   21.4103   20.1311 C   0  0  0  0  0  0  0  0  0  0  0  0
   19.6771   21.8849   20.0555 C   0  0  0  0  0  0  0  0  0  0  0  0
  1  2  1  0
  2  3  1  0
  3  4  1  0
  4  5  1  0
  3  6  1  0
  6  7  1  0
  7  8  1  0
  8  9  1  0
  9 10  1  6
  9 11  1  0
 11 12  1  6
 12 13  1  0
 13 14  2  0
 14 15  1  0
 15 16  2  0
 16 17  1  0
 17 18  2  0
 11 19  1  0
 19 20  1  0
 20 21  2  0
 20 22  1  0
 23 22  1  6
 23 24  1  0
 24 25  1  0
 26 25  1  1
 26 27  1  0
 27 28  1  0
 28 29  1  0
 30 29  1  1
  7 31  1  0
 31 32  2  0
 31 33  2  0
 31 34  1  0
 34 35  2  0
 35 36  1  0
 36 37  2  0
 37 38  1  0
 37 39  1  0
 39 40  2  0
 18 13  1  0
 30 23  1  0
 40 34  1  0
 30 26  1  0
M  END
>  <shape_align_shape_tanimoto>  (1) 
0.5953493173197153

>  <shape_align_color_tanimoto>  (1) 
0.065548745018170651

>  <metric>  (1) 
shape

>  <metric_score>  (1) 
0.595

>  <template_pid>  (1) 
3O9E

>  <template_shape_score>  (1) 
0.595

>  <template_color_score>  (1) 
0.066

>  <template_combo_score>  (1) 
0.330

$$$$
3O9E_color_pose
     RDKit          3D

 40 43  0  0  0  0  0  0  0  0999 V2000
   19.0470   21.3320   21.7353 C   0  0  0  0  0  0  0  0  0  0  0  0
   19.6309   22.7068   21.5700 C   0  0  0  0  0  0  0  0  0  0  0  0
   18.7074   23.6086   20.7043 C   0  0  0  0  0  0  0  0  0  0  0  0
   19.3880   24.9564   20.6114 C   0  0  0  0  0  0  0  0  0  0  0  0
   19.5619   25.5200   22.0444 C   0  0  0  0  0  0  0  0  0  0  0  0
   18.5615   22.8838   19.4165 C   0  0  0  0  0  0  0  0  0  0  0  0
   17.7693   23.4222   18.3882 N   0  0  0  0  0  0  0  0  0  0  0  0
   16.5817   24.0789   18.7193 C   0  0  0  0  0  0  0  0  0  0  0  0
   15.2838   23.3844   18.6160 C   0  0  1  0  0  0  0  0  0  0  0  0
   14.1859   24.2127   18.9811 O   0  0  0  0  0  0  0  0  0  0  0  0
   14.9504   22.5123   17.4838 C   0  0  2  0  0  0  0  0  0  0  0  0
   14.4750   23.1741   16.2198 C   0  0  0  0  0  0  0  0  0  0  0  0
   14.1618   22.1244   15.2137 C   0  0  0  0  0  0  0  0  0  0  0  0
   12.8599   21.6321   15.1634 C   0  0  0  0  0  0  0  0  0  0  0  0
   12.5401   20.6528   14.2443 C   0  0  0  0  0  0  0  0  0  0  0  0
   13.4393   20.1182   13.3536 C   0  0  0  0  0  0  0  0  0  0  0  0
   14.7411   20.6176   13.4093 C   0  0  0  0  0  0  0  0  0  0  0  0
   15.0569   21.5938   14.3277 C   0  0  0  0  0  0  0  0  0  0  0  0
   13.8251   21.6538   17.9559 N   0  0  0  0  0  0  0  0  0  0  0  0
   14.0343   20.2655   18.1915 C   0  0  0  0  0  0  0  0  0  0  0  0
   15.1633   19.7557   18.0057 O   0  0  0  0  0  0  0  0  0  0  0  0
   12.9931   19.4618   18.6304 O   0  0  0  0  0  0  0  0  0  0  0  0
   13.1256   18.1004   18.8843 C   0  0  1  0  0  0  0  0  0  0  0  0
   12.5462   17.6198   20.1864 C   0  0  0  0  0  0  0  0  0  0  0  0
   11.2010   17.9241   20.0015 O   0  0  0  0  0  0  0  0  0  0  0  0
   10.9254   17.3023   18.7861 C   0  0  1  0  0  0  0  0  0  0  0  0
    9.8579   17.8652   18.1103 O   0  0  0  0  0  0  0  0  0  0  0  0
   10.3196   18.7679   17.1884 C   0  0  0  0  0  0  0  0  0  0  0  0
   11.7160   18.3110   16.8172 C   0  0  0  0  0  0  0  0  0  0  0  0
   12.1494   17.3996   17.9175 C   0  0  1  0  0  0  0  0  0  0  0  0
   18.6639   24.1365   17.1524 S   0  0  0  0  0  0  0  0  0  0  0  0
   17.7608   24.7164   16.0875 O   0  0  0  0  0  0  0  0  0  0  0  0
   19.5185   25.3113   17.6318 O   0  0  0  0  0  0  0  0  0  0  0  0
   19.7411   23.0418   16.3036 C   0  0  0  0  0  0  0  0  0  0  0  0
   21.0429   22.8199   16.7282 C   0  0  0  0  0  0  0  0  0  0  0  0
   21.8975   21.9524   16.0425 C   0  0  0  0  0  0  0  0  0  0  0  0
   21.4231   21.2935   14.8986 C   0  0  0  0  0  0  0  0  0  0  0  0
   22.3030   20.4142   14.2039 N   0  0  0  0  0  0  0  0  0  0  0  0
   20.1259   21.5033   14.4600 C   0  0  0  0  0  0  0  0  0  0  0  0
   19.3152   22.3707   15.1696 C   0  0  0  0  0  0  0  0  0  0  0  0
  1  2  1  0
  2  3  1  0
  3  4  1  0
  4  5  1  0
  3  6  1  0
  6  7  1  0
  7  8  1  0
  8  9  1  0
  9 10  1  6
  9 11  1  0
 11 12  1  6
 12 13  1  0
 13 14  2  0
 14 15  1  0
 15 16  2  0
 16 17  1  0
 17 18  2  0
 11 19  1  0
 19 20  1  0
 20 21  2  0
 20 22  1  0
 23 22  1  1
 23 24  1  0
 24 25  1  0
 26 25  1  1
 26 27  1  0
 27 28  1  0
 28 29  1  0
 30 29  1  6
  7 31  1  0
 31 32  2  0
 31 33  2  0
 31 34  1  0
 34 35  2  0
 35 36  1  0
 36 37  2  0
 37 38  1  0
 37 39  1  0
 39 40  2  0
 18 13  1  0
 30 23  1  0
 40 34  1  0
 30 26  1  0
M  END
>  <shape_align_shape_tanimoto>  (2) 
0.53883631862025705

>  <shape_align_color_tanimoto>  (2) 
0.11636344281823666

>  <metric>  (2) 
color

>  <metric_score>  (2) 
0.116

>  <template_pid>  (2) 
3O9E

>  <template_shape_score>  (2) 
0.539

>  <template_color_score>  (2) 
0.116

>  <template_combo_score>  (2) 
0.328

$$$$
3O9E_combo_pose
     RDKit          3D

 40 43  0  0  0  0  0  0  0  0999 V2000
   18.0150   24.6329   14.9009 C   0  0  0  0  0  0  0  0  0  0  0  0
   18.7336   23.7155   15.8693 C   0  0  0  0  0  0  0  0  0  0  0  0
   19.2594   24.5082   17.0682 C   0  0  0  0  0  0  0  0  0  0  0  0
   20.2010   25.5597   16.5872 C   0  0  0  0  0  0  0  0  0  0  0  0
   21.3918   24.9970   15.8499 C   0  0  0  0  0  0  0  0  0  0  0  0
   18.1753   25.1014   17.9028 C   0  0  0  0  0  0  0  0  0  0  0  0
   17.2722   24.0993   18.4918 N   0  0  0  0  0  0  0  0  0  0  0  0
   15.9539   24.6911   18.4895 C   0  0  0  0  0  0  0  0  0  0  0  0
   14.8084   23.7801   18.6478 C   0  0  1  0  0  0  0  0  0  0  0  0
   13.6297   24.5686   18.6241 O   0  0  0  0  0  0  0  0  0  0  0  0
   14.6027   22.7340   17.6035 C   0  0  2  0  0  0  0  0  0  0  0  0
   14.5650   23.2589   16.2098 C   0  0  0  0  0  0  0  0  0  0  0  0
   14.3551   22.1593   15.2031 C   0  0  0  0  0  0  0  0  0  0  0  0
   15.4158   21.4884   14.6323 C   0  0  0  0  0  0  0  0  0  0  0  0
   15.1502   20.4864   13.7117 C   0  0  0  0  0  0  0  0  0  0  0  0
   13.8609   20.1495   13.3583 C   0  0  0  0  0  0  0  0  0  0  0  0
   12.7846   20.8281   13.9357 C   0  0  0  0  0  0  0  0  0  0  0  0
   13.0661   21.8179   14.8457 C   0  0  0  0  0  0  0  0  0  0  0  0
   13.4206   21.9108   17.9116 N   0  0  0  0  0  0  0  0  0  0  0  0
   13.5174   20.5351   18.2259 C   0  0  0  0  0  0  0  0  0  0  0  0
   14.6359   20.0053   18.2433 O   0  0  0  0  0  0  0  0  0  0  0  0
   12.3338   19.8608   18.4980 O   0  0  0  0  0  0  0  0  0  0  0  0
   12.3349   18.5370   18.8100 C   0  0  1  0  0  0  0  0  0  0  0  0
   11.8001   18.1720   20.1727 C   0  0  0  0  0  0  0  0  0  0  0  0
   11.4940   16.8339   20.1195 O   0  0  0  0  0  0  0  0  0  0  0  0
   11.8092   16.3619   18.8470 C   0  0  1  0  0  0  0  0  0  0  0  0
   10.8613   15.4844   18.3810 O   0  0  0  0  0  0  0  0  0  0  0  0
    9.6923   16.2388   18.4703 C   0  0  0  0  0  0  0  0  0  0  0  0
   10.0708   17.6563   18.0860 C   0  0  0  0  0  0  0  0  0  0  0  0
   11.5719   17.5823   17.9654 C   0  0  1  0  0  0  0  0  0  0  0  0
   17.8496   23.8488   20.0977 S   0  0  0  0  0  0  0  0  0  0  0  0
   16.8807   23.0142   20.9010 O   0  0  0  0  0  0  0  0  0  0  0  0
   17.8360   25.2018   20.7635 O   0  0  0  0  0  0  0  0  0  0  0  0
   19.4642   23.2400   20.1889 C   0  0  0  0  0  0  0  0  0  0  0  0
   20.5474   24.0843   20.3924 C   0  0  0  0  0  0  0  0  0  0  0  0
   21.8467   23.6205   20.4680 C   0  0  0  0  0  0  0  0  0  0  0  0
   22.0522   22.2664   20.3340 C   0  0  0  0  0  0  0  0  0  0  0  0
   23.4055   21.8141   20.4160 N   0  0  0  0  0  0  0  0  0  0  0  0
   20.9882   21.4103   20.1311 C   0  0  0  0  0  0  0  0  0  0  0  0
   19.6771   21.8849   20.0555 C   0  0  0  0  0  0  0  0  0  0  0  0
  1  2  1  0
  2  3  1  0
  3  4  1  0
  4  5  1  0
  3  6  1  0
  6  7  1  0
  7  8  1  0
  8  9  1  0
  9 10  1  6
  9 11  1  0
 11 12  1  6
 12 13  1  0
 13 14  2  0
 14 15  1  0
 15 16  2  0
 16 17  1  0
 17 18  2  0
 11 19  1  0
 19 20  1  0
 20 21  2  0
 20 22  1  0
 23 22  1  6
 23 24  1  0
 24 25  1  0
 26 25  1  1
 26 27  1  0
 27 28  1  0
 28 29  1  0
 30 29  1  1
  7 31  1  0
 31 32  2  0
 31 33  2  0
 31 34  1  0
 34 35  2  0
 35 36  1  0
 36 37  2  0
 37 38  1  0
 37 39  1  0
 39 40  2  0
 18 13  1  0
 30 23  1  0
 40 34  1  0
 30 26  1  0
M  END
>  <shape_align_shape_tanimoto>  (3) 
0.5953493173197153

>  <shape_align_color_tanimoto>  (3) 
0.065548745018170651

>  <metric>  (3) 
combo

>  <metric_score>  (3) 
0.330

>  <template_pid>  (3) 
3O9E

>  <template_shape_score>  (3) 
0.595

>  <template_color_score>  (3) 
0.066

>  <template_combo_score>  (3) 
0.330

$$$$
