3FAA_shape_pose
     RDKit          3D

 27 30  0  0  0  0  0  0  0  0999 V2000
  -90.4068  -12.5656    5.9603 C   0  0  0  0  0  0  0  0  0  0  0  0
  -88.9882  -12.2762    6.3445 C   0  0  0  0  0  0  0  0  0  0  0  0
  -88.6793  -12.2105    7.5567 O   0  0  0  0  0  0  0  0  0  0  0  0
  -88.0197  -12.0814    5.3493 N   0  0  0  0  0  0  0  0  0  0  0  0
  -86.6497  -11.8018    5.6149 C   0  0  0  0  0  0  0  0  0  0  0  0
  -85.6915  -11.6093    4.6724 N   0  0  0  0  0  0  0  0  0  0  0  0
  -84.5089  -11.3669    5.2165 C   0  0  0  0  0  0  0  0  0  0  0  0
  -83.2402  -11.1110    4.5416 C   0  0  0  0  0  0  0  0  0  0  0  0
  -82.7318  -12.1162    3.7142 C   0  0  0  0  0  0  0  0  0  0  0  0
  -81.5263  -11.9322    3.0434 C   0  0  0  0  0  0  0  0  0  0  0  0
  -80.8595  -10.7373    3.2221 C   0  0  0  0  0  0  0  0  0  0  0  0
  -79.6905  -10.5429    2.5798 N   0  0  0  0  0  0  0  0  0  0  0  0
  -79.0430   -9.3697    2.7599 C   0  0  0  0  0  0  0  0  0  0  0  0
  -79.5226   -8.3677    3.5676 C   0  0  0  0  0  0  0  0  0  0  0  0
  -80.6883   -8.5568    4.2104 N   0  0  0  0  0  0  0  0  0  0  0  0
  -81.3501   -9.7384    4.0351 C   0  0  0  0  0  0  0  0  0  0  0  0
  -82.5453   -9.9124    4.7044 C   0  0  0  0  0  0  0  0  0  0  0  0
  -84.6946  -11.4007    6.5831 C   0  0  0  0  0  0  0  0  0  0  0  0
  -83.6959  -11.1930    7.6275 C   0  0  0  0  0  0  0  0  0  0  0  0
  -83.9255  -10.1215    8.4913 C   0  0  0  0  0  0  0  0  0  0  0  0
  -82.9994   -9.8791    9.5079 C   0  0  0  0  0  0  0  0  0  0  0  0
  -81.9074  -10.7225    9.5930 C   0  0  0  0  0  0  0  0  0  0  0  0
  -81.0129  -10.4719   10.5912 F   0  0  0  0  0  0  0  0  0  0  0  0
  -81.6924  -11.7737    8.7370 C   0  0  0  0  0  0  0  0  0  0  0  0
  -80.5131  -12.6395    8.8729 C   0  0  0  0  0  0  0  0  0  0  0  0
  -82.6064  -11.9768    7.7694 N   0  0  0  0  0  0  0  0  0  0  0  0
  -86.0083  -11.6677    6.7853 N   0  0  0  0  0  0  0  0  0  0  0  0
  1  2  1  0
  2  3  2  0
  2  4  1  0
  4  5  1  0
  5  6  2  0
  6  7  1  0
  7  8  1  0
  8  9  2  0
  9 10  1  0
 10 11  2  0
 11 12  1  0
 12 13  2  0
 13 14  1  0
 14 15  2  0
 15 16  1  0
 16 17  2  0
  7 18  2  0
 18 19  1  0
 19 20  2  0
 20 21  1  0
 21 22  2  0
 22 23  1  0
 22 24  1  0
 24 25  1  0
 24 26  2  0
 18 27  1  0
 27  5  1  0
 17  8  1  0
 26 19  1  0
 16 11  1  0
M  END
>  <shape_align_shape_tanimoto>  (1) 
0.4920929032857238

>  <shape_align_color_tanimoto>  (1) 
0.079245784020376922

>  <metric>  (1) 
shape

>  <metric_score>  (1) 
0.492

>  <template_pid>  (1) 
3FAA

>  <template_shape_score>  (1) 
0.492

>  <template_color_score>  (1) 
0.079

>  <template_combo_score>  (1) 
0.286

$$$$
3FAA_color_pose
     RDKit          3D

 27 30  0  0  0  0  0  0  0  0999 V2000
  -92.0175  -15.6210    9.4354 C   0  0  0  0  0  0  0  0  0  0  0  0
  -91.1493  -14.9823    8.4454 C   0  0  0  0  0  0  0  0  0  0  0  0
  -90.7313  -15.5782    7.4177 O   0  0  0  0  0  0  0  0  0  0  0  0
  -90.7564  -13.6276    8.6485 N   0  0  0  0  0  0  0  0  0  0  0  0
  -89.9127  -12.9522    7.7230 C   0  0  0  0  0  0  0  0  0  0  0  0
  -88.5742  -12.9004    7.7332 N   0  0  0  0  0  0  0  0  0  0  0  0
  -88.1221  -12.1661    6.6908 C   0  0  0  0  0  0  0  0  0  0  0  0
  -86.7129  -11.9123    6.4158 C   0  0  0  0  0  0  0  0  0  0  0  0
  -86.0213  -11.2150    7.4156 C   0  0  0  0  0  0  0  0  0  0  0  0
  -84.6764  -10.9113    7.2677 C   0  0  0  0  0  0  0  0  0  0  0  0
  -84.0471  -11.3132    6.1155 C   0  0  0  0  0  0  0  0  0  0  0  0
  -82.7246  -11.0146    5.9675 N   0  0  0  0  0  0  0  0  0  0  0  0
  -82.0873  -11.3994    4.8442 C   0  0  0  0  0  0  0  0  0  0  0  0
  -82.7827  -12.0849    3.8698 C   0  0  0  0  0  0  0  0  0  0  0  0
  -84.0939  -12.3953    3.9885 N   0  0  0  0  0  0  0  0  0  0  0  0
  -84.7280  -12.0100    5.1103 C   0  0  0  0  0  0  0  0  0  0  0  0
  -86.0794  -12.3147    5.2604 C   0  0  0  0  0  0  0  0  0  0  0  0
  -89.2255  -11.7549    6.0196 C   0  0  0  0  0  0  0  0  0  0  0  0
  -89.2604  -10.9465    4.8219 C   0  0  0  0  0  0  0  0  0  0  0  0
  -89.5751   -9.6010    4.8103 C   0  0  0  0  0  0  0  0  0  0  0  0
  -89.5729   -8.9636    3.5890 C   0  0  0  0  0  0  0  0  0  0  0  0
  -89.2742   -9.6053    2.3995 C   0  0  0  0  0  0  0  0  0  0  0  0
  -89.2810   -8.9539    1.2139 F   0  0  0  0  0  0  0  0  0  0  0  0
  -88.9672  -10.9433    2.4595 C   0  0  0  0  0  0  0  0  0  0  0  0
  -88.6392  -11.6935    1.2114 C   0  0  0  0  0  0  0  0  0  0  0  0
  -88.9734  -11.5418    3.6413 N   0  0  0  0  0  0  0  0  0  0  0  0
  -90.3351  -12.2324    6.6462 N   0  0  0  0  0  0  0  0  0  0  0  0
  1  2  1  0
  2  3  2  0
  2  4  1  0
  4  5  1  0
  5  6  2  0
  6  7  1  0
  7  8  1  0
  8  9  2  0
  9 10  1  0
 10 11  2  0
 11 12  1  0
 12 13  2  0
 13 14  1  0
 14 15  2  0
 15 16  1  0
 16 17  2  0
  7 18  2  0
 18 19  1  0
 19 20  2  0
 20 21  1  0
 21 22  2  0
 22 23  1  0
 22 24  1  0
 24 25  1  0
 24 26  2  0
 18 27  1  0
 27  5  1  0
 17  8  1  0
 26 19  1  0
 16 11  1  0
M  END
>  <shape_align_shape_tanimoto>  (2) 
0.41280527013029245

>  <shape_align_color_tanimoto>  (2) 
0.11978804998039588

>  <metric>  (2) 
color

>  <metric_score>  (2) 
0.120

>  <template_pid>  (2) 
3FAA

>  <template_shape_score>  (2) 
0.413

>  <template_color_score>  (2) 
0.120

>  <template_combo_score>  (2) 
0.266

$$$$
3FAA_combo_pose
     RDKit          3D

 27 30  0  0  0  0  0  0  0  0999 V2000
  -90.4068  -12.5656    5.9603 C   0  0  0  0  0  0  0  0  0  0  0  0
  -88.9882  -12.2762    6.3445 C   0  0  0  0  0  0  0  0  0  0  0  0
  -88.6793  -12.2105    7.5567 O   0  0  0  0  0  0  0  0  0  0  0  0
  -88.0197  -12.0814    5.3493 N   0  0  0  0  0  0  0  0  0  0  0  0
  -86.6497  -11.8018    5.6149 C   0  0  0  0  0  0  0  0  0  0  0  0
  -85.6915  -11.6093    4.6724 N   0  0  0  0  0  0  0  0  0  0  0  0
  -84.5089  -11.3669    5.2165 C   0  0  0  0  0  0  0  0  0  0  0  0
  -83.2402  -11.1110    4.5416 C   0  0  0  0  0  0  0  0  0  0  0  0
  -82.7318  -12.1162    3.7142 C   0  0  0  0  0  0  0  0  0  0  0  0
  -81.5263  -11.9322    3.0434 C   0  0  0  0  0  0  0  0  0  0  0  0
  -80.8595  -10.7373    3.2221 C   0  0  0  0  0  0  0  0  0  0  0  0
  -79.6905  -10.5429    2.5798 N   0  0  0  0  0  0  0  0  0  0  0  0
  -79.0430   -9.3697    2.7599 C   0  0  0  0  0  0  0  0  0  0  0  0
  -79.5226   -8.3677    3.5676 C   0  0  0  0  0  0  0  0  0  0  0  0
  -80.6883   -8.5568    4.2104 N   0  0  0  0  0  0  0  0  0  0  0  0
  -81.3501   -9.7384    4.0351 C   0  0  0  0  0  0  0  0  0  0  0  0
  -82.5453   -9.9124    4.7044 C   0  0  0  0  0  0  0  0  0  0  0  0
  -84.6946  -11.4007    6.5831 C   0  0  0  0  0  0  0  0  0  0  0  0
  -83.6959  -11.1930    7.6275 C   0  0  0  0  0  0  0  0  0  0  0  0
  -83.9255  -10.1215    8.4913 C   0  0  0  0  0  0  0  0  0  0  0  0
  -82.9994   -9.8791    9.5079 C   0  0  0  0  0  0  0  0  0  0  0  0
  -81.9074  -10.7225    9.5930 C   0  0  0  0  0  0  0  0  0  0  0  0
  -81.0129  -10.4719   10.5912 F   0  0  0  0  0  0  0  0  0  0  0  0
  -81.6924  -11.7737    8.7370 C   0  0  0  0  0  0  0  0  0  0  0  0
  -80.5131  -12.6395    8.8729 C   0  0  0  0  0  0  0  0  0  0  0  0
  -82.6064  -11.9768    7.7694 N   0  0  0  0  0  0  0  0  0  0  0  0
  -86.0083  -11.6677    6.7853 N   0  0  0  0  0  0  0  0  0  0  0  0
  1  2  1  0
  2  3  2  0
  2  4  1  0
  4  5  1  0
  5  6  2  0
  6  7  1  0
  7  8  1  0
  8  9  2  0
  9 10  1  0
 10 11  2  0
 11 12  1  0
 12 13  2  0
 13 14  1  0
 14 15  2  0
 15 16  1  0
 16 17  2  0
  7 18  2  0
 18 19  1  0
 19 20  2  0
 20 21  1  0
 21 22  2  0
 22 23  1  0
 22 24  1  0
 24 25  1  0
 24 26  2  0
 18 27  1  0
 27  5  1  0
 17  8  1  0
 26 19  1  0
 16 11  1  0
M  END
>  <shape_align_shape_tanimoto>  (3) 
0.4920929032857238

>  <shape_align_color_tanimoto>  (3) 
0.079245784020376922

>  <metric>  (3) 
combo

>  <metric_score>  (3) 
0.286

>  <template_pid>  (3) 
3FAA

>  <template_shape_score>  (3) 
0.492

>  <template_color_score>  (3) 
0.079

>  <template_combo_score>  (3) 
0.286

$$$$
