5L7E_shape_pose
     RDKit          3D

 24 26  0  0  0  0  0  0  0  0999 V2000
   28.3987  -52.2548  -41.4929 C   0  0  0  0  0  0  0  0  0  0  0  0
   27.5456  -53.4359  -41.3611 C   0  0  0  0  0  0  0  0  0  0  0  0
   27.4975  -54.4830  -42.1940 N   0  0  0  0  0  0  0  0  0  0  0  0
   26.7116  -55.3854  -41.8204 O   0  0  0  0  0  0  0  0  0  0  0  0
   26.1657  -55.0045  -40.6847 C   0  0  0  0  0  0  0  0  0  0  0  0
   25.2185  -55.7975  -39.9087 C   0  0  0  0  0  0  0  0  0  0  0  0
   26.6612  -53.7349  -40.3294 C   0  0  0  0  0  0  0  0  0  0  0  0
   26.2566  -53.0266  -39.1523 C   0  0  0  0  0  0  0  0  0  0  0  0
   25.0227  -53.1141  -38.5959 C   0  0  0  0  0  0  0  0  0  0  0  0
   24.7627  -52.5165  -37.3772 C   0  0  0  0  0  0  0  0  0  0  0  0
   25.7767  -51.8052  -36.7177 C   0  0  0  0  0  0  0  0  0  0  0  0
   25.8050  -51.3185  -35.3731 C   0  0  0  0  0  0  0  0  0  0  0  0
   25.7938  -50.8580  -34.1557 N   0  0  0  0  0  0  0  0  0  0  0  0
   27.3352  -50.9375  -33.3296 S   0  0  0  0  0  0  0  0  0  0  0  0
   28.3166  -49.9571  -34.0586 O   0  0  0  0  0  0  0  0  0  0  0  0
   27.0525  -50.1734  -32.0034 O   0  0  0  0  0  0  0  0  0  0  0  0
   28.1231  -52.3559  -33.0690 C   0  0  0  0  0  0  0  0  0  0  0  0
   28.6849  -53.0167  -34.1359 C   0  0  0  0  0  0  0  0  0  0  0  0
   29.4869  -54.1665  -34.0934 C   0  0  0  0  0  0  0  0  0  0  0  0
   29.7196  -54.6694  -32.7613 C   0  0  0  0  0  0  0  0  0  0  0  0
   29.1607  -54.0601  -31.6586 C   0  0  0  0  0  0  0  0  0  0  0  0
   28.3774  -52.9194  -31.8102 C   0  0  0  0  0  0  0  0  0  0  0  0
   27.0573  -51.7474  -37.3748 C   0  0  0  0  0  0  0  0  0  0  0  0
   27.3050  -52.3272  -38.5412 C   0  0  0  0  0  0  0  0  0  0  0  0
  1  2  1  0
  2  3  2  0
  3  4  1  0
  4  5  1  0
  5  6  1  0
  5  7  2  0
  7  8  1  0
  8  9  2  0
  9 10  1  0
 10 11  2  0
 11 12  1  0
 12 13  1  0
 13 14  1  0
 14 15  2  0
 14 16  2  0
 14 17  1  0
 17 18  2  0
 18 19  1  0
 19 20  2  0
 20 21  1  0
 21 22  2  0
 11 23  1  0
 23 24  2  0
  7  2  1  0
 24  8  1  0
 22 17  1  0
M  END
>  <shape_align_shape_tanimoto>  (1) 
0.67888179958950845

>  <shape_align_color_tanimoto>  (1) 
0.099341776609569235

>  <metric>  (1) 
shape

>  <metric_score>  (1) 
0.679

>  <template_pid>  (1) 
5L7E

>  <template_shape_score>  (1) 
0.679

>  <template_color_score>  (1) 
0.099

>  <template_combo_score>  (1) 
0.389

$$$$
5L7E_color_pose
     RDKit          3D

 24 26  0  0  0  0  0  0  0  0999 V2000
   27.4675  -56.4282  -41.4141 C   0  0  0  0  0  0  0  0  0  0  0  0
   27.3443  -55.2565  -42.3077 C   0  0  0  0  0  0  0  0  0  0  0  0
   27.5191  -55.1820  -43.6416 N   0  0  0  0  0  0  0  0  0  0  0  0
   27.3197  -53.9634  -44.0725 O   0  0  0  0  0  0  0  0  0  0  0  0
   27.0060  -53.1904  -43.0375 C   0  0  0  0  0  0  0  0  0  0  0  0
   26.7010  -51.7340  -43.0866 C   0  0  0  0  0  0  0  0  0  0  0  0
   27.0083  -53.9668  -41.8909 C   0  0  0  0  0  0  0  0  0  0  0  0
   26.7324  -53.5943  -40.5207 C   0  0  0  0  0  0  0  0  0  0  0  0
   27.7747  -53.1628  -39.6915 C   0  0  0  0  0  0  0  0  0  0  0  0
   27.5008  -52.8047  -38.3696 C   0  0  0  0  0  0  0  0  0  0  0  0
   26.2169  -52.8742  -37.8822 C   0  0  0  0  0  0  0  0  0  0  0  0
   25.9727  -52.4880  -36.4848 C   0  0  0  0  0  0  0  0  0  0  0  0
   25.6638  -51.1017  -36.2909 N   0  0  0  0  0  0  0  0  0  0  0  0
   25.3941  -50.7611  -34.5971 S   0  0  0  0  0  0  0  0  0  0  0  0
   25.0679  -49.3271  -34.3947 O   0  0  0  0  0  0  0  0  0  0  0  0
   24.3332  -51.6600  -34.0561 O   0  0  0  0  0  0  0  0  0  0  0  0
   26.9270  -51.1537  -33.8079 C   0  0  0  0  0  0  0  0  0  0  0  0
   27.9082  -50.2263  -33.6499 C   0  0  0  0  0  0  0  0  0  0  0  0
   29.0746  -50.6173  -33.0221 C   0  0  0  0  0  0  0  0  0  0  0  0
   29.2779  -51.9059  -32.5532 C   0  0  0  0  0  0  0  0  0  0  0  0
   28.2548  -52.8232  -32.7326 C   0  0  0  0  0  0  0  0  0  0  0  0
   27.0832  -52.4597  -33.3546 C   0  0  0  0  0  0  0  0  0  0  0  0
   25.1961  -53.3055  -38.7225 C   0  0  0  0  0  0  0  0  0  0  0  0
   25.4324  -53.6673  -40.0356 C   0  0  0  0  0  0  0  0  0  0  0  0
  1  2  1  0
  2  3  2  0
  3  4  1  0
  4  5  1  0
  5  6  1  0
  5  7  2  0
  7  8  1  0
  8  9  2  0
  9 10  1  0
 10 11  2  0
 11 12  1  0
 12 13  1  0
 13 14  1  0
 14 15  2  0
 14 16  2  0
 14 17  1  0
 17 18  2  0
 18 19  1  0
 19 20  2  0
 20 21  1  0
 21 22  2  0
 11 23  1  0
 23 24  2  0
  7  2  1  0
 24  8  1  0
 22 17  1  0
M  END
>  <shape_align_shape_tanimoto>  (2) 
0.5171505291830466

>  <shape_align_color_tanimoto>  (2) 
0.13273718812753227

>  <metric>  (2) 
color

>  <metric_score>  (2) 
0.133

>  <template_pid>  (2) 
5L7E

>  <template_shape_score>  (2) 
0.517

>  <template_color_score>  (2) 
0.133

>  <template_combo_score>  (2) 
0.325

$$$$
5L7E_combo_pose
     RDKit          3D

 24 26  0  0  0  0  0  0  0  0999 V2000
   28.3987  -52.2548  -41.4929 C   0  0  0  0  0  0  0  0  0  0  0  0
   27.5456  -53.4359  -41.3611 C   0  0  0  0  0  0  0  0  0  0  0  0
   27.4975  -54.4830  -42.1940 N   0  0  0  0  0  0  0  0  0  0  0  0
   26.7116  -55.3854  -41.8204 O   0  0  0  0  0  0  0  0  0  0  0  0
   26.1657  -55.0045  -40.6847 C   0  0  0  0  0  0  0  0  0  0  0  0
   25.2185  -55.7975  -39.9087 C   0  0  0  0  0  0  0  0  0  0  0  0
   26.6612  -53.7349  -40.3294 C   0  0  0  0  0  0  0  0  0  0  0  0
   26.2566  -53.0266  -39.1523 C   0  0  0  0  0  0  0  0  0  0  0  0
   25.0227  -53.1141  -38.5959 C   0  0  0  0  0  0  0  0  0  0  0  0
   24.7627  -52.5165  -37.3772 C   0  0  0  0  0  0  0  0  0  0  0  0
   25.7767  -51.8052  -36.7177 C   0  0  0  0  0  0  0  0  0  0  0  0
   25.8050  -51.3185  -35.3731 C   0  0  0  0  0  0  0  0  0  0  0  0
   25.7938  -50.8580  -34.1557 N   0  0  0  0  0  0  0  0  0  0  0  0
   27.3352  -50.9375  -33.3296 S   0  0  0  0  0  0  0  0  0  0  0  0
   28.3166  -49.9571  -34.0586 O   0  0  0  0  0  0  0  0  0  0  0  0
   27.0525  -50.1734  -32.0034 O   0  0  0  0  0  0  0  0  0  0  0  0
   28.1231  -52.3559  -33.0690 C   0  0  0  0  0  0  0  0  0  0  0  0
   28.6849  -53.0167  -34.1359 C   0  0  0  0  0  0  0  0  0  0  0  0
   29.4869  -54.1665  -34.0934 C   0  0  0  0  0  0  0  0  0  0  0  0
   29.7196  -54.6694  -32.7613 C   0  0  0  0  0  0  0  0  0  0  0  0
   29.1607  -54.0601  -31.6586 C   0  0  0  0  0  0  0  0  0  0  0  0
   28.3774  -52.9194  -31.8102 C   0  0  0  0  0  0  0  0  0  0  0  0
   27.0573  -51.7474  -37.3748 C   0  0  0  0  0  0  0  0  0  0  0  0
   27.3050  -52.3272  -38.5412 C   0  0  0  0  0  0  0  0  0  0  0  0
  1  2  1  0
  2  3  2  0
  3  4  1  0
  4  5  1  0
  5  6  1  0
  5  7  2  0
  7  8  1  0
  8  9  2  0
  9 10  1  0
 10 11  2  0
 11 12  1  0
 12 13  1  0
 13 14  1  0
 14 15  2  0
 14 16  2  0
 14 17  1  0
 17 18  2  0
 18 19  1  0
 19 20  2  0
 20 21  1  0
 21 22  2  0
 11 23  1  0
 23 24  2  0
  7  2  1  0
 24  8  1  0
 22 17  1  0
M  END
>  <shape_align_shape_tanimoto>  (3) 
0.67888179958950845

>  <shape_align_color_tanimoto>  (3) 
0.099341776609569235

>  <metric>  (3) 
combo

>  <metric_score>  (3) 
0.389

>  <template_pid>  (3) 
5L7E

>  <template_shape_score>  (3) 
0.679

>  <template_color_score>  (3) 
0.099

>  <template_combo_score>  (3) 
0.389

$$$$
