5VQX_shape_pose
     RDKit          3D

 36 39  0  0  0  0  0  0  0  0999 V2000
  -31.4339  -37.6556   40.4416 C   0  0  0  0  0  0  0  0  0  0  0  0
  -32.7048  -37.2401   39.7600 C   0  0  0  0  0  0  0  0  0  0  0  0
  -33.0357  -36.0288   39.8715 O   0  0  0  0  0  0  0  0  0  0  0  0
  -33.4708  -38.1941   39.0338 N   0  0  0  0  0  0  0  0  0  0  0  0
  -34.6916  -37.7127   38.4005 C   0  0  0  0  0  0  0  0  0  0  0  0
  -33.0598  -39.5511   38.9340 C   0  0  0  0  0  0  0  0  0  0  0  0
  -32.2446  -39.9373   37.8906 C   0  0  0  0  0  0  0  0  0  0  0  0
  -31.8252  -41.2422   37.7596 C   0  0  0  0  0  0  0  0  0  0  0  0
  -31.0116  -41.5913   36.7019 O   0  0  0  0  0  0  0  0  0  0  0  0
  -29.7229  -42.0635   36.8809 C   0  0  0  0  0  0  0  0  0  0  0  0
  -29.1529  -42.1603   38.1314 C   0  0  0  0  0  0  0  0  0  0  0  0
  -27.8604  -42.6367   38.3119 C   0  0  0  0  0  0  0  0  0  0  0  0
  -27.1601  -43.0112   37.1974 C   0  0  0  0  0  0  0  0  0  0  0  0
  -27.7373  -42.9103   35.9531 C   0  0  0  0  0  0  0  0  0  0  0  0
  -29.0131  -42.4455   35.7269 C   0  0  0  0  0  0  0  0  0  0  0  0
  -29.6382  -42.3223   34.5449 O   0  0  0  0  0  0  0  0  0  0  0  0
  -29.3672  -42.5681   33.2416 C   0  0  0  0  0  0  0  0  0  0  0  0
  -29.1318  -44.0175   32.9307 C   0  0  0  0  0  0  0  0  0  0  0  0
  -30.2358  -44.8860   33.2017 N   0  0  0  0  0  0  0  0  0  0  0  0
  -31.1704  -45.0208   32.2209 C   0  0  0  0  0  0  0  0  0  0  0  0
  -32.2829  -45.8030   32.3483 C   0  0  0  0  0  0  0  0  0  0  0  0
  -32.4831  -46.4954   33.5205 C   0  0  0  0  0  0  0  0  0  0  0  0
  -33.4863  -47.2207   33.6776 O   0  0  0  0  0  0  0  0  0  0  0  0
  -31.5507  -46.3519   34.4793 N   0  0  0  0  0  0  0  0  0  0  0  0
  -30.4559  -45.5691   34.3261 C   0  0  0  0  0  0  0  0  0  0  0  0
  -29.6611  -45.5094   35.2674 O   0  0  0  0  0  0  0  0  0  0  0  0
  -32.2284  -42.1893   38.6915 C   0  0  0  0  0  0  0  0  0  0  0  0
  -31.8400  -43.6183   38.6093 C   0  0  0  0  0  0  0  0  0  0  0  0
  -33.0472  -41.7983   39.7390 C   0  0  0  0  0  0  0  0  0  0  0  0
  -33.4923  -42.6757   40.7077 C   0  0  0  0  0  0  0  0  0  0  0  0
  -34.3093  -42.2871   41.7535 C   0  0  0  0  0  0  0  0  0  0  0  0
  -34.7269  -43.2782   42.7241 C   0  0  0  0  0  0  0  0  0  0  0  0
  -35.0565  -44.0663   43.5041 N   0  0  0  0  0  0  0  0  0  0  0  0
  -34.7026  -40.9665   41.8415 C   0  0  0  0  0  0  0  0  0  0  0  0
  -34.2760  -40.0430   40.8828 C   0  0  0  0  0  0  0  0  0  0  0  0
  -33.4652  -40.4833   39.8651 C   0  0  0  0  0  0  0  0  0  0  0  0
  1  2  1  0
  2  3  2  0
  2  4  1  0
  4  5  1  0
  4  6  1  0
  6  7  2  0
  7  8  1  0
  8  9  1  0
  9 10  1  0
 10 11  2  0
 11 12  1  0
 12 13  2  0
 13 14  1  0
 14 15  2  0
 15 16  1  0
 16 17  1  0
 17 18  1  0
 18 19  1  0
 19 20  1  0
 20 21  2  0
 21 22  1  0
 22 23  2  0
 22 24  1  0
 24 25  1  0
 25 26  2  0
  8 27  2  0
 27 28  1  0
 27 29  1  0
 29 30  2  0
 30 31  1  0
 31 32  1  0
 32 33  3  0
 31 34  2  0
 34 35  1  0
 35 36  2  0
 36  6  1  0
 15 10  1  0
 25 19  1  0
 36 29  1  0
M  END
>  <shape_align_shape_tanimoto>  (1) 
0.70676662324702422

>  <shape_align_color_tanimoto>  (1) 
0.097754300530035074

>  <metric>  (1) 
shape

>  <metric_score>  (1) 
0.707

>  <template_pid>  (1) 
5VQX

>  <template_shape_score>  (1) 
0.707

>  <template_color_score>  (1) 
0.098

>  <template_combo_score>  (1) 
0.402

$$$$
5VQX_color_pose
     RDKit          3D

 36 39  0  0  0  0  0  0  0  0999 V2000
  -32.4222  -36.3152   40.5603 C   0  0  0  0  0  0  0  0  0  0  0  0
  -32.6478  -37.6574   39.9769 C   0  0  0  0  0  0  0  0  0  0  0  0
  -33.4979  -37.8978   39.0832 O   0  0  0  0  0  0  0  0  0  0  0  0
  -31.8563  -38.7447   40.4538 N   0  0  0  0  0  0  0  0  0  0  0  0
  -30.8542  -38.5610   41.4882 C   0  0  0  0  0  0  0  0  0  0  0  0
  -32.0757  -40.0454   39.8817 C   0  0  0  0  0  0  0  0  0  0  0  0
  -31.3891  -40.4552   38.7967 C   0  0  0  0  0  0  0  0  0  0  0  0
  -31.5621  -41.7372   38.1844 C   0  0  0  0  0  0  0  0  0  0  0  0
  -30.8109  -41.9513   37.1516 O   0  0  0  0  0  0  0  0  0  0  0  0
  -29.9320  -42.4178   36.3375 C   0  0  0  0  0  0  0  0  0  0  0  0
  -28.9435  -41.4734   35.9045 C   0  0  0  0  0  0  0  0  0  0  0  0
  -27.9431  -41.7665   35.0589 C   0  0  0  0  0  0  0  0  0  0  0  0
  -27.8222  -43.0169   34.5607 C   0  0  0  0  0  0  0  0  0  0  0  0
  -28.7202  -43.9755   34.9211 C   0  0  0  0  0  0  0  0  0  0  0  0
  -29.7749  -43.7084   35.7980 C   0  0  0  0  0  0  0  0  0  0  0  0
  -30.6185  -44.6555   36.1164 O   0  0  0  0  0  0  0  0  0  0  0  0
  -31.0288  -45.9168   35.9734 C   0  0  0  0  0  0  0  0  0  0  0  0
  -31.5625  -46.4159   34.6631 C   0  0  0  0  0  0  0  0  0  0  0  0
  -30.7241  -46.3504   33.5261 N   0  0  0  0  0  0  0  0  0  0  0  0
  -29.8746  -47.3951   33.2998 C   0  0  0  0  0  0  0  0  0  0  0  0
  -29.0245  -47.4086   32.2144 C   0  0  0  0  0  0  0  0  0  0  0  0
  -29.0204  -46.3534   31.3310 C   0  0  0  0  0  0  0  0  0  0  0  0
  -28.2404  -46.3831   30.3499 O   0  0  0  0  0  0  0  0  0  0  0  0
  -29.8678  -45.3443   31.5841 N   0  0  0  0  0  0  0  0  0  0  0  0
  -30.7024  -45.3163   32.6374 C   0  0  0  0  0  0  0  0  0  0  0  0
  -31.4675  -44.3520   32.8216 O   0  0  0  0  0  0  0  0  0  0  0  0
  -32.5112  -42.5214   38.8170 C   0  0  0  0  0  0  0  0  0  0  0  0
  -32.8011  -43.8365   38.2425 C   0  0  0  0  0  0  0  0  0  0  0  0
  -33.2205  -42.1297   39.9202 C   0  0  0  0  0  0  0  0  0  0  0  0
  -34.1588  -42.9091   40.5599 C   0  0  0  0  0  0  0  0  0  0  0  0
  -34.8506  -42.4598   41.6896 C   0  0  0  0  0  0  0  0  0  0  0  0
  -35.8187  -43.3171   42.3160 C   0  0  0  0  0  0  0  0  0  0  0  0
  -36.5891  -44.0264   42.8215 N   0  0  0  0  0  0  0  0  0  0  0  0
  -34.6088  -41.2043   42.2030 C   0  0  0  0  0  0  0  0  0  0  0  0
  -33.6697  -40.4390   41.5541 C   0  0  0  0  0  0  0  0  0  0  0  0
  -32.9919  -40.8846   40.4440 C   0  0  0  0  0  0  0  0  0  0  0  0
  1  2  1  0
  2  3  2  0
  2  4  1  0
  4  5  1  0
  4  6  1  0
  6  7  2  0
  7  8  1  0
  8  9  1  0
  9 10  1  0
 10 11  2  0
 11 12  1  0
 12 13  2  0
 13 14  1  0
 14 15  2  0
 15 16  1  0
 16 17  1  0
 17 18  1  0
 18 19  1  0
 19 20  1  0
 20 21  2  0
 21 22  1  0
 22 23  2  0
 22 24  1  0
 24 25  1  0
 25 26  2  0
  8 27  2  0
 27 28  1  0
 27 29  1  0
 29 30  2  0
 30 31  1  0
 31 32  1  0
 32 33  3  0
 31 34  2  0
 34 35  1  0
 35 36  2  0
 36  6  1  0
 15 10  1  0
 25 19  1  0
 36 29  1  0
M  END
>  <shape_align_shape_tanimoto>  (2) 
0.64013056305322447

>  <shape_align_color_tanimoto>  (2) 
0.12677849378308775

>  <metric>  (2) 
color

>  <metric_score>  (2) 
0.127

>  <template_pid>  (2) 
5VQX

>  <template_shape_score>  (2) 
0.640

>  <template_color_score>  (2) 
0.127

>  <template_combo_score>  (2) 
0.383

$$$$
5VQX_combo_pose
     RDKit          3D

 36 39  0  0  0  0  0  0  0  0999 V2000
  -32.1679  -42.8022   42.4560 C   0  0  0  0  0  0  0  0  0  0  0  0
  -33.5669  -43.1481   42.0906 C   0  0  0  0  0  0  0  0  0  0  0  0
  -34.2295  -43.8708   42.8945 O   0  0  0  0  0  0  0  0  0  0  0  0
  -34.1054  -42.6625   40.8687 N   0  0  0  0  0  0  0  0  0  0  0  0
  -35.4920  -43.0360   40.5602 C   0  0  0  0  0  0  0  0  0  0  0  0
  -33.3620  -41.8538   39.9706 C   0  0  0  0  0  0  0  0  0  0  0  0
  -32.5890  -42.3636   38.9490 C   0  0  0  0  0  0  0  0  0  0  0  0
  -31.8682  -41.5458   38.0804 C   0  0  0  0  0  0  0  0  0  0  0  0
  -31.1003  -42.0639   37.0625 O   0  0  0  0  0  0  0  0  0  0  0  0
  -29.7346  -41.9140   36.9627 C   0  0  0  0  0  0  0  0  0  0  0  0
  -28.9441  -41.2651   37.8811 C   0  0  0  0  0  0  0  0  0  0  0  0
  -27.5694  -41.1351   37.7403 C   0  0  0  0  0  0  0  0  0  0  0  0
  -26.9394  -41.6739   36.6354 C   0  0  0  0  0  0  0  0  0  0  0  0
  -27.7433  -42.3230   35.7212 C   0  0  0  0  0  0  0  0  0  0  0  0
  -29.1035  -42.4536   35.8565 C   0  0  0  0  0  0  0  0  0  0  0  0
  -29.8262  -43.1372   34.8608 O   0  0  0  0  0  0  0  0  0  0  0  0
  -29.0984  -43.6461   33.7823 C   0  0  0  0  0  0  0  0  0  0  0  0
  -30.0078  -44.3514   32.7986 C   0  0  0  0  0  0  0  0  0  0  0  0
  -30.7037  -45.4598   33.4232 N   0  0  0  0  0  0  0  0  0  0  0  0
  -31.9007  -45.3338   34.0256 C   0  0  0  0  0  0  0  0  0  0  0  0
  -32.4721  -46.4568   34.5879 C   0  0  0  0  0  0  0  0  0  0  0  0
  -31.8016  -47.6678   34.5153 C   0  0  0  0  0  0  0  0  0  0  0  0
  -32.3070  -48.7062   35.0231 O   0  0  0  0  0  0  0  0  0  0  0  0
  -30.6083  -47.7753   33.9105 N   0  0  0  0  0  0  0  0  0  0  0  0
  -30.0652  -46.6636   33.3657 C   0  0  0  0  0  0  0  0  0  0  0  0
  -28.9453  -46.7960   32.8055 O   0  0  0  0  0  0  0  0  0  0  0  0
  -31.9550  -40.1818   38.2789 C   0  0  0  0  0  0  0  0  0  0  0  0
  -31.2616  -39.1864   37.4267 C   0  0  0  0  0  0  0  0  0  0  0  0
  -32.7375  -39.6579   39.3141 C   0  0  0  0  0  0  0  0  0  0  0  0
  -32.8331  -38.2935   39.5248 C   0  0  0  0  0  0  0  0  0  0  0  0
  -33.5996  -37.7586   40.5403 C   0  0  0  0  0  0  0  0  0  0  0  0
  -33.6570  -36.3235   40.7067 C   0  0  0  0  0  0  0  0  0  0  0  0
  -33.6899  -35.1649   40.8466 N   0  0  0  0  0  0  0  0  0  0  0  0
  -34.3034  -38.5922   41.3866 C   0  0  0  0  0  0  0  0  0  0  0  0
  -34.2196  -39.9633   41.1904 C   0  0  0  0  0  0  0  0  0  0  0  0
  -33.4489  -40.4717   40.1714 C   0  0  0  0  0  0  0  0  0  0  0  0
  1  2  1  0
  2  3  2  0
  2  4  1  0
  4  5  1  0
  4  6  1  0
  6  7  2  0
  7  8  1  0
  8  9  1  0
  9 10  1  0
 10 11  2  0
 11 12  1  0
 12 13  2  0
 13 14  1  0
 14 15  2  0
 15 16  1  0
 16 17  1  0
 17 18  1  0
 18 19  1  0
 19 20  1  0
 20 21  2  0
 21 22  1  0
 22 23  2  0
 22 24  1  0
 24 25  1  0
 25 26  2  0
  8 27  2  0
 27 28  1  0
 27 29  1  0
 29 30  2  0
 30 31  1  0
 31 32  1  0
 32 33  3  0
 31 34  2  0
 34 35  1  0
 35 36  2  0
 36  6  1  0
 15 10  1  0
 25 19  1  0
 36 29  1  0
M  END
>  <shape_align_shape_tanimoto>  (3) 
0.70254717825467961

>  <shape_align_color_tanimoto>  (3) 
0.12293920837475705

>  <metric>  (3) 
combo

>  <metric_score>  (3) 
0.413

>  <template_pid>  (3) 
5VQX

>  <template_shape_score>  (3) 
0.703

>  <template_color_score>  (3) 
0.123

>  <template_combo_score>  (3) 
0.413

$$$$
