6E6W_shape_pose
     RDKit          3D

 23 25  0  0  0  0  0  0  0  0999 V2000
   -7.2670   -9.9176   24.6711 C   0  0  0  0  0  0  0  0  0  0  0  0
   -6.4668   -9.8569   23.4288 C   0  0  0  0  0  0  0  0  0  0  0  0
   -5.5769   -8.7756   23.3417 C   0  0  0  0  0  0  0  0  0  0  0  0
   -4.7147   -8.6247   22.2813 C   0  0  0  0  0  0  0  0  0  0  0  0
   -3.7786   -7.5150   22.1593 C   0  0  0  0  0  0  0  0  0  0  0  0
   -3.6427   -6.5072   23.0637 N   0  0  0  0  0  0  0  0  0  0  0  0
   -2.7043   -5.6707   22.6411 N   0  0  0  0  0  0  0  0  0  0  0  0
   -2.2686   -6.1540   21.4958 N   0  0  0  0  0  0  0  0  0  0  0  0
   -2.8968   -7.2691   21.1743 N   0  0  0  0  0  0  0  0  0  0  0  0
   -4.7613   -9.5867   21.3007 C   0  0  0  0  0  0  0  0  0  0  0  0
   -5.6322  -10.6413   21.3872 C   0  0  0  0  0  0  0  0  0  0  0  0
   -6.5227  -10.8141   22.4605 C   0  0  0  0  0  0  0  0  0  0  0  0
   -7.4434  -11.9135   22.3681 C   0  0  0  0  0  0  0  0  0  0  0  0
   -8.5733  -12.0908   23.0060 C   0  0  0  0  0  0  0  0  0  0  0  0
   -9.4250  -13.2871   22.8129 C   0  0  0  0  0  0  0  0  0  0  0  0
  -10.5334  -13.3779   23.3937 O   0  0  0  0  0  0  0  0  0  0  0  0
   -9.0158  -14.4084   21.9429 C   0  0  0  0  0  0  0  0  0  0  0  0
   -9.9433  -14.5236   20.8832 O   0  0  0  0  0  0  0  0  0  0  0  0
   -7.7298  -14.0603   21.3009 C   0  0  0  0  0  0  0  0  0  0  0  0
   -7.1690  -15.0438   20.3610 C   0  0  0  0  0  0  0  0  0  0  0  0
   -7.7513  -16.1292   20.1103 O   0  0  0  0  0  0  0  0  0  0  0  0
   -5.9621  -14.8256   19.6976 O   0  0  0  0  0  0  0  0  0  0  0  0
   -7.0665  -12.9949   21.4877 N   0  0  0  0  0  0  0  0  0  0  0  0
  1  2  1  0
  2  3  2  0
  3  4  1  0
  4  5  1  0
  5  6  2  0
  6  7  1  0
  7  8  2  0
  8  9  1  0
  4 10  2  0
 10 11  1  0
 11 12  2  0
 12 13  1  0
 13 14  2  0
 14 15  1  0
 15 16  2  0
 15 17  1  0
 17 18  1  0
 17 19  1  0
 19 20  1  0
 20 21  2  0
 20 22  1  0
 19 23  2  0
 12  2  1  0
 23 13  1  0
  9  5  1  0
M  CHG  1  22  -1
M  END
>  <shape_align_shape_tanimoto>  (1) 
0.68951832636238941

>  <shape_align_color_tanimoto>  (1) 
0.060736818384393335

>  <metric>  (1) 
shape

>  <metric_score>  (1) 
0.690

>  <template_pid>  (1) 
6E6W

>  <template_shape_score>  (1) 
0.690

>  <template_color_score>  (1) 
0.061

>  <template_combo_score>  (1) 
0.375

$$$$
6E6W_color_pose
     RDKit          3D

 23 25  0  0  0  0  0  0  0  0999 V2000
   -8.1648  -10.2376   23.7859 C   0  0  0  0  0  0  0  0  0  0  0  0
   -6.8644  -10.0671   23.0926 C   0  0  0  0  0  0  0  0  0  0  0  0
   -6.1294   -8.9201   23.3142 C   0  0  0  0  0  0  0  0  0  0  0  0
   -4.9141   -8.6642   22.7228 C   0  0  0  0  0  0  0  0  0  0  0  0
   -4.1600   -7.4422   22.9764 C   0  0  0  0  0  0  0  0  0  0  0  0
   -4.5433   -6.4396   23.7954 N   0  0  0  0  0  0  0  0  0  0  0  0
   -3.6317   -5.4831   23.7980 N   0  0  0  0  0  0  0  0  0  0  0  0
   -2.6643   -5.8645   22.9856 N   0  0  0  0  0  0  0  0  0  0  0  0
   -2.9726   -7.0471   22.4832 N   0  0  0  0  0  0  0  0  0  0  0  0
   -4.4184   -9.6177   21.8639 C   0  0  0  0  0  0  0  0  0  0  0  0
   -5.1452  -10.7898   21.6228 C   0  0  0  0  0  0  0  0  0  0  0  0
   -6.3629  -11.0310   22.2242 C   0  0  0  0  0  0  0  0  0  0  0  0
   -7.1024  -12.2585   21.9582 C   0  0  0  0  0  0  0  0  0  0  0  0
   -6.6744  -13.2084   21.1430 C   0  0  0  0  0  0  0  0  0  0  0  0
   -7.4677  -14.4102   20.9248 C   0  0  0  0  0  0  0  0  0  0  0  0
   -7.0407  -15.3147   20.1369 O   0  0  0  0  0  0  0  0  0  0  0  0
   -8.7750  -14.6654   21.5719 C   0  0  0  0  0  0  0  0  0  0  0  0
   -9.7270  -14.6900   20.5323 O   0  0  0  0  0  0  0  0  0  0  0  0
   -9.0889  -13.5060   22.4399 C   0  0  0  0  0  0  0  0  0  0  0  0
  -10.3566  -13.5522   23.1851 C   0  0  0  0  0  0  0  0  0  0  0  0
  -11.1528  -14.5238   23.1028 O   0  0  0  0  0  0  0  0  0  0  0  0
  -10.7493  -12.5121   24.0314 O   0  0  0  0  0  0  0  0  0  0  0  0
   -8.3570  -12.4854   22.5900 N   0  0  0  0  0  0  0  0  0  0  0  0
  1  2  1  0
  2  3  2  0
  3  4  1  0
  4  5  1  0
  5  6  2  0
  6  7  1  0
  7  8  2  0
  8  9  1  0
  4 10  2  0
 10 11  1  0
 11 12  2  0
 12 13  1  0
 13 14  2  0
 14 15  1  0
 15 16  2  0
 15 17  1  0
 17 18  1  0
 17 19  1  0
 19 20  1  0
 20 21  2  0
 20 22  1  0
 19 23  2  0
 12  2  1  0
 23 13  1  0
  9  5  1  0
M  CHG  1  22  -1
M  END
>  <shape_align_shape_tanimoto>  (2) 
0.65545964506760068

>  <shape_align_color_tanimoto>  (2) 
0.072868998470797877

>  <metric>  (2) 
color

>  <metric_score>  (2) 
0.073

>  <template_pid>  (2) 
6E6W

>  <template_shape_score>  (2) 
0.655

>  <template_color_score>  (2) 
0.073

>  <template_combo_score>  (2) 
0.364

$$$$
6E6W_combo_pose
     RDKit          3D

 23 25  0  0  0  0  0  0  0  0999 V2000
   -7.2670   -9.9176   24.6711 C   0  0  0  0  0  0  0  0  0  0  0  0
   -6.4668   -9.8569   23.4288 C   0  0  0  0  0  0  0  0  0  0  0  0
   -5.5769   -8.7756   23.3417 C   0  0  0  0  0  0  0  0  0  0  0  0
   -4.7147   -8.6247   22.2813 C   0  0  0  0  0  0  0  0  0  0  0  0
   -3.7786   -7.5150   22.1593 C   0  0  0  0  0  0  0  0  0  0  0  0
   -3.6427   -6.5072   23.0637 N   0  0  0  0  0  0  0  0  0  0  0  0
   -2.7043   -5.6707   22.6411 N   0  0  0  0  0  0  0  0  0  0  0  0
   -2.2686   -6.1540   21.4958 N   0  0  0  0  0  0  0  0  0  0  0  0
   -2.8968   -7.2691   21.1743 N   0  0  0  0  0  0  0  0  0  0  0  0
   -4.7613   -9.5867   21.3007 C   0  0  0  0  0  0  0  0  0  0  0  0
   -5.6322  -10.6413   21.3872 C   0  0  0  0  0  0  0  0  0  0  0  0
   -6.5227  -10.8141   22.4605 C   0  0  0  0  0  0  0  0  0  0  0  0
   -7.4434  -11.9135   22.3681 C   0  0  0  0  0  0  0  0  0  0  0  0
   -8.5733  -12.0908   23.0060 C   0  0  0  0  0  0  0  0  0  0  0  0
   -9.4250  -13.2871   22.8129 C   0  0  0  0  0  0  0  0  0  0  0  0
  -10.5334  -13.3779   23.3937 O   0  0  0  0  0  0  0  0  0  0  0  0
   -9.0158  -14.4084   21.9429 C   0  0  0  0  0  0  0  0  0  0  0  0
   -9.9433  -14.5236   20.8832 O   0  0  0  0  0  0  0  0  0  0  0  0
   -7.7298  -14.0603   21.3009 C   0  0  0  0  0  0  0  0  0  0  0  0
   -7.1690  -15.0438   20.3610 C   0  0  0  0  0  0  0  0  0  0  0  0
   -7.7513  -16.1292   20.1103 O   0  0  0  0  0  0  0  0  0  0  0  0
   -5.9621  -14.8256   19.6976 O   0  0  0  0  0  0  0  0  0  0  0  0
   -7.0665  -12.9949   21.4877 N   0  0  0  0  0  0  0  0  0  0  0  0
  1  2  1  0
  2  3  2  0
  3  4  1  0
  4  5  1  0
  5  6  2  0
  6  7  1  0
  7  8  2  0
  8  9  1  0
  4 10  2  0
 10 11  1  0
 11 12  2  0
 12 13  1  0
 13 14  2  0
 14 15  1  0
 15 16  2  0
 15 17  1  0
 17 18  1  0
 17 19  1  0
 19 20  1  0
 20 21  2  0
 20 22  1  0
 19 23  2  0
 12  2  1  0
 23 13  1  0
  9  5  1  0
M  CHG  1  22  -1
M  END
>  <shape_align_shape_tanimoto>  (3) 
0.68951832636238941

>  <shape_align_color_tanimoto>  (3) 
0.060736818384393335

>  <metric>  (3) 
combo

>  <metric_score>  (3) 
0.375

>  <template_pid>  (3) 
6E6W

>  <template_shape_score>  (3) 
0.690

>  <template_color_score>  (3) 
0.061

>  <template_combo_score>  (3) 
0.375

$$$$
