5MKX_shape_pose
     RDKit          3D

 11 11  0  0  0  0  0  0  0  0999 V2000
    8.2149    4.0291  -34.9700 C   0  0  0  0  0  0  0  0  0  0  0  0
    9.0005    4.8521  -34.0830 N   0  0  0  0  0  0  0  0  0  0  0  0
    8.6653    5.0808  -32.8639 C   0  0  0  0  0  0  0  0  0  0  0  0
    7.4512    4.5031  -32.3226 C   0  0  0  0  0  0  0  0  0  0  0  0
    7.1581    4.5833  -31.0662 N   0  0  0  0  0  0  0  0  0  0  0  0
    8.0031    5.2391  -30.1429 N   0  0  0  0  0  0  0  0  0  0  0  0
    7.6692    5.3257  -28.7356 C   0  0  0  0  0  0  0  0  0  0  0  0
    9.2071    5.8230  -30.6233 C   0  0  0  0  0  0  0  0  0  0  0  0
   10.0196    6.2635  -29.7410 O   0  0  0  0  0  0  0  0  0  0  0  0
    9.5530    5.9408  -32.0540 C   0  0  0  0  0  0  0  0  0  0  0  0
   11.2365    5.5166  -32.3893 Cl  0  0  0  0  0  0  0  0  0  0  0  0
  1  2  1  0
  2  3  2  0
  3  4  1  0
  4  5  2  0
  5  6  1  0
  6  7  1  0
  6  8  1  0
  8  9  2  0
  8 10  1  0
 10 11  1  0
 10  3  1  0
M  END
>  <shape_align_shape_tanimoto>  (1) 
0.63489302959930216

>  <shape_align_color_tanimoto>  (1) 
0.064738051935299995

>  <metric>  (1) 
shape

>  <metric_score>  (1) 
0.635

>  <template_pid>  (1) 
5MKX

>  <template_shape_score>  (1) 
0.635

>  <template_color_score>  (1) 
0.065

>  <template_combo_score>  (1) 
0.350

$$$$
5MKX_color_pose
     RDKit          3D

 11 11  0  0  0  0  0  0  0  0999 V2000
    7.8651    4.4003  -35.0494 C   0  0  0  0  0  0  0  0  0  0  0  0
    8.9347    4.7499  -34.1196 N   0  0  0  0  0  0  0  0  0  0  0  0
    8.7322    4.7330  -32.8403 C   0  0  0  0  0  0  0  0  0  0  0  0
    7.4194    4.3605  -32.3107 C   0  0  0  0  0  0  0  0  0  0  0  0
    7.1558    4.6363  -31.0763 N   0  0  0  0  0  0  0  0  0  0  0  0
    8.0272    5.2661  -30.1971 N   0  0  0  0  0  0  0  0  0  0  0  0
    7.5954    5.5148  -28.8285 C   0  0  0  0  0  0  0  0  0  0  0  0
    9.3180    5.6513  -30.6569 C   0  0  0  0  0  0  0  0  0  0  0  0
    9.9881    6.4587  -29.9762 O   0  0  0  0  0  0  0  0  0  0  0  0
    9.8596    5.0990  -31.9303 C   0  0  0  0  0  0  0  0  0  0  0  0
   10.8744    6.3223  -32.7558 Cl  0  0  0  0  0  0  0  0  0  0  0  0
  1  2  1  0
  2  3  2  0
  3  4  1  0
  4  5  2  0
  5  6  1  0
  6  7  1  0
  6  8  1  0
  8  9  2  0
  8 10  1  0
 10 11  1  0
 10  3  1  0
M  END
>  <shape_align_shape_tanimoto>  (2) 
0.62516707857447673

>  <shape_align_color_tanimoto>  (2) 
0.070103044694790798

>  <metric>  (2) 
color

>  <metric_score>  (2) 
0.070

>  <template_pid>  (2) 
5MKX

>  <template_shape_score>  (2) 
0.625

>  <template_color_score>  (2) 
0.070

>  <template_combo_score>  (2) 
0.348

$$$$
5MKX_combo_pose
     RDKit          3D

 11 11  0  0  0  0  0  0  0  0999 V2000
    8.1160    4.3997  -35.0530 C   0  0  0  0  0  0  0  0  0  0  0  0
    9.0727    4.7768  -34.0615 N   0  0  0  0  0  0  0  0  0  0  0  0
    8.8024    4.8361  -32.8022 C   0  0  0  0  0  0  0  0  0  0  0  0
    7.4824    4.5167  -32.3056 C   0  0  0  0  0  0  0  0  0  0  0  0
    7.0954    4.7259  -31.0940 N   0  0  0  0  0  0  0  0  0  0  0  0
    7.9843    5.2896  -30.2011 N   0  0  0  0  0  0  0  0  0  0  0  0
    7.5285    5.5217  -28.8244 C   0  0  0  0  0  0  0  0  0  0  0  0
    9.3062    5.6520  -30.5488 C   0  0  0  0  0  0  0  0  0  0  0  0
   10.0668    6.3234  -29.7927 O   0  0  0  0  0  0  0  0  0  0  0  0
    9.8678    5.2375  -31.8707 C   0  0  0  0  0  0  0  0  0  0  0  0
   10.6850    6.6729  -32.5304 Cl  0  0  0  0  0  0  0  0  0  0  0  0
  1  2  1  0
  2  3  2  0
  3  4  1  0
  4  5  2  0
  5  6  1  0
  6  7  1  0
  6  8  1  0
  8  9  2  0
  8 10  1  0
 10 11  1  0
 10  3  1  0
M  END
>  <shape_align_shape_tanimoto>  (3) 
0.63265970021038809

>  <shape_align_color_tanimoto>  (3) 
0.067782156032973509

>  <metric>  (3) 
combo

>  <metric_score>  (3) 
0.350

>  <template_pid>  (3) 
5MKX

>  <template_shape_score>  (3) 
0.633

>  <template_color_score>  (3) 
0.068

>  <template_combo_score>  (3) 
0.350

$$$$
