2E91_shape_pose
     RDKit          3D

 16 16  0  0  0  0  0  0  0  0999 V2000
   -1.4984   10.4568   23.4494 O   0  0  0  0  0  0  0  0  0  0  0  0
   -0.1939   11.1120   23.8334 P   0  0  0  0  0  0  0  0  0  0  0  0
    0.8630   10.0227   24.5999 O   0  0  0  0  0  0  0  0  0  0  0  0
   -0.5007   12.3423   24.9520 O   0  0  0  0  0  0  0  0  0  0  0  0
    0.6033   11.8834   22.3910 C   0  0  0  0  0  0  0  0  0  0  0  0
    0.1126   11.1734   21.2793 O   0  0  0  0  0  0  0  0  0  0  0  0
    2.0568   11.6399   22.5007 C   0  0  0  0  0  0  0  0  0  0  0  0
    2.9158   12.1401   21.4961 N   0  0  0  0  0  0  0  0  0  0  0  0
    3.2594   11.4418   20.3737 C   0  0  0  0  0  0  0  0  0  0  0  0
    4.1085   12.2053   19.5964 C   0  0  0  0  0  0  0  0  0  0  0  0
    4.2766   13.3577   20.2456 N   0  0  0  0  0  0  0  0  0  0  0  0
    3.5681   13.3352   21.3871 C   0  0  0  0  0  0  0  0  0  0  0  0
    0.0717   13.5718   22.2917 P   0  0  0  0  0  0  0  0  0  0  0  0
    0.9334   14.5714   22.9929 O   0  0  0  0  0  0  0  0  0  0  0  0
   -1.4776   13.7715   22.9981 O   0  0  0  0  0  0  0  0  0  0  0  0
   -0.1959   13.9916   20.6516 O   0  0  0  0  0  0  0  0  0  0  0  0
  1  2  2  0
  2  3  1  0
  2  4  1  0
  2  5  1  0
  5  6  1  0
  5  7  1  0
  7  8  1  0
  8  9  1  0
  9 10  2  0
 10 11  1  0
 11 12  2  0
  5 13  1  0
 13 14  2  0
 13 15  1  0
 13 16  1  0
 12  8  1  0
M  END
>  <shape_align_shape_tanimoto>  (1) 
0.73167877864557851

>  <shape_align_color_tanimoto>  (1) 
0.063180058014423029

>  <metric>  (1) 
shape

>  <metric_score>  (1) 
0.732

>  <template_pid>  (1) 
2E91

>  <template_shape_score>  (1) 
0.732

>  <template_color_score>  (1) 
0.063

>  <template_combo_score>  (1) 
0.397

$$$$
2E91_color_pose
     RDKit          3D

 16 16  0  0  0  0  0  0  0  0999 V2000
    0.3619   15.4657   22.0976 O   0  0  0  0  0  0  0  0  0  0  0  0
   -0.0543   14.1025   22.6479 P   0  0  0  0  0  0  0  0  0  0  0  0
   -1.7297   14.0673   22.6273 O   0  0  0  0  0  0  0  0  0  0  0  0
    0.5574   14.0308   24.2201 O   0  0  0  0  0  0  0  0  0  0  0  0
    0.6665   12.8308   21.5829 C   0  0  0  0  0  0  0  0  0  0  0  0
    0.5282   13.2725   20.2657 O   0  0  0  0  0  0  0  0  0  0  0  0
   -0.0382   11.5067   21.6605 C   0  0  0  0  0  0  0  0  0  0  0  0
   -0.0407   10.9224   22.9878 N   0  0  0  0  0  0  0  0  0  0  0  0
   -0.9301   11.0604   23.9869 C   0  0  0  0  0  0  0  0  0  0  0  0
   -0.5230   10.3236   25.0562 C   0  0  0  0  0  0  0  0  0  0  0  0
    0.6150    9.7252   24.7338 N   0  0  0  0  0  0  0  0  0  0  0  0
    0.9121   10.0958   23.4555 C   0  0  0  0  0  0  0  0  0  0  0  0
    2.4464   12.6709   21.8876 P   0  0  0  0  0  0  0  0  0  0  0  0
    2.7734   12.6386   23.3564 O   0  0  0  0  0  0  0  0  0  0  0  0
    3.2966   13.9853   21.2282 O   0  0  0  0  0  0  0  0  0  0  0  0
    3.0176   11.2966   21.0683 O   0  0  0  0  0  0  0  0  0  0  0  0
  1  2  2  0
  2  3  1  0
  2  4  1  0
  2  5  1  0
  5  6  1  0
  5  7  1  0
  7  8  1  0
  8  9  1  0
  9 10  2  0
 10 11  1  0
 11 12  2  0
  5 13  1  0
 13 14  2  0
 13 15  1  0
 13 16  1  0
 12  8  1  0
M  END
>  <shape_align_shape_tanimoto>  (2) 
0.62568422375549937

>  <shape_align_color_tanimoto>  (2) 
0.18075121841418532

>  <metric>  (2) 
color

>  <metric_score>  (2) 
0.181

>  <template_pid>  (2) 
2E91

>  <template_shape_score>  (2) 
0.626

>  <template_color_score>  (2) 
0.181

>  <template_combo_score>  (2) 
0.403

$$$$
2E91_combo_pose
     RDKit          3D

 16 16  0  0  0  0  0  0  0  0999 V2000
    3.4940   11.6765   20.4065 O   0  0  0  0  0  0  0  0  0  0  0  0
    2.9340   12.9360   20.9813 P   0  0  0  0  0  0  0  0  0  0  0  0
    4.1977   13.8269   21.6682 O   0  0  0  0  0  0  0  0  0  0  0  0
    2.2444   13.8825   19.7737 O   0  0  0  0  0  0  0  0  0  0  0  0
    1.6807   12.5423   22.2424 C   0  0  0  0  0  0  0  0  0  0  0  0
    2.2075   12.8587   23.4988 O   0  0  0  0  0  0  0  0  0  0  0  0
    1.3698   11.0761   22.2287 C   0  0  0  0  0  0  0  0  0  0  0  0
    0.3935   10.6558   23.1840 N   0  0  0  0  0  0  0  0  0  0  0  0
   -0.9447   10.5534   23.1087 C   0  0  0  0  0  0  0  0  0  0  0  0
   -1.4653   10.0934   24.3075 C   0  0  0  0  0  0  0  0  0  0  0  0
   -0.4017    9.9185   25.1163 N   0  0  0  0  0  0  0  0  0  0  0  0
    0.7159   10.2557   24.4437 C   0  0  0  0  0  0  0  0  0  0  0  0
    0.2203   13.5681   21.9456 P   0  0  0  0  0  0  0  0  0  0  0  0
   -0.5655   12.9624   20.8312 O   0  0  0  0  0  0  0  0  0  0  0  0
    0.7053   15.1351   21.5056 O   0  0  0  0  0  0  0  0  0  0  0  0
   -0.7180   13.6621   23.3479 O   0  0  0  0  0  0  0  0  0  0  0  0
  1  2  2  0
  2  3  1  0
  2  4  1  0
  2  5  1  0
  5  6  1  0
  5  7  1  0
  7  8  1  0
  8  9  1  0
  9 10  2  0
 10 11  1  0
 11 12  2  0
  5 13  1  0
 13 14  2  0
 13 15  1  0
 13 16  1  0
 12  8  1  0
M  END
>  <shape_align_shape_tanimoto>  (3) 
0.68619823870668162

>  <shape_align_color_tanimoto>  (3) 
0.140567573370634

>  <metric>  (3) 
combo

>  <metric_score>  (3) 
0.413

>  <template_pid>  (3) 
2E91

>  <template_shape_score>  (3) 
0.686

>  <template_color_score>  (3) 
0.141

>  <template_combo_score>  (3) 
0.413

$$$$
