4TK0_shape_pose
     RDKit          3D

 22 24  0  0  0  0  0  0  0  0999 V2000
   12.2992    2.4385   13.9530 O   0  0  0  0  0  0  0  0  0  0  0  0
   12.2721    3.6741   14.1801 C   0  0  0  0  0  0  0  0  0  0  0  0
   12.4945    4.6103   13.1285 N   0  0  0  0  0  0  0  0  0  0  0  0
   11.8866    5.9227   13.2991 C   0  0  0  0  0  0  0  0  0  0  0  0
   12.2332    6.5224   14.6438 C   0  0  0  0  0  0  0  0  0  0  0  0
   11.9861    5.5860   15.7604 C   0  0  0  0  0  0  0  0  0  0  0  0
   11.7315    6.1011   17.0444 C   0  0  0  0  0  0  0  0  0  0  0  0
   11.7249    7.4516   17.1639 O   0  0  0  0  0  0  0  0  0  0  0  0
   11.5186    8.1763   18.3345 C   0  0  0  0  0  0  0  0  0  0  0  0
   12.5679    8.0196   19.3989 C   0  0  0  0  0  0  0  0  0  0  0  0
   12.2831    8.8502   20.6497 C   0  0  0  0  0  0  0  0  0  0  0  0
   11.0028    8.4227   21.2480 C   0  0  0  0  0  0  0  0  0  0  0  0
   10.6431    9.1348   22.4911 N   0  0  0  0  0  0  0  0  0  0  0  0
    9.2133    9.1274   22.6090 C   0  0  0  0  0  0  0  0  0  0  0  0
    8.5184   10.2110   21.8476 C   0  0  0  0  0  0  0  0  0  0  0  0
    9.0984   11.5284   22.2210 C   0  0  0  0  0  0  0  0  0  0  0  0
   10.5997   11.5800   22.1148 C   0  0  0  0  0  0  0  0  0  0  0  0
   11.2846   10.3733   22.6610 C   0  0  0  0  0  0  0  0  0  0  0  0
   11.5158    5.1712   18.0239 C   0  0  0  0  0  0  0  0  0  0  0  0
   11.5438    3.7934   17.7848 C   0  0  0  0  0  0  0  0  0  0  0  0
   11.7951    3.3106   16.5206 C   0  0  0  0  0  0  0  0  0  0  0  0
   12.0144    4.2303   15.5180 C   0  0  0  0  0  0  0  0  0  0  0  0
  1  2  2  0
  2  3  1  0
  3  4  1  0
  4  5  1  0
  5  6  1  0
  6  7  2  0
  7  8  1  0
  8  9  1  0
  9 10  1  0
 10 11  1  0
 11 12  1  0
 12 13  1  0
 13 14  1  0
 14 15  1  0
 15 16  1  0
 16 17  1  0
 17 18  1  0
  7 19  1  0
 19 20  2  0
 20 21  1  0
 21 22  2  0
 22  2  1  0
 22  6  1  0
 18 13  1  0
M  CHG  1  13   1
M  END
>  <shape_align_shape_tanimoto>  (1) 
0.76478175393836945

>  <shape_align_color_tanimoto>  (1) 
0.044742430947324857

>  <metric>  (1) 
shape

>  <metric_score>  (1) 
0.765

>  <template_pid>  (1) 
4TK0

>  <template_shape_score>  (1) 
0.765

>  <template_color_score>  (1) 
0.045

>  <template_combo_score>  (1) 
0.405

$$$$
4TK0_color_pose
     RDKit          3D

 22 24  0  0  0  0  0  0  0  0999 V2000
   11.0840    9.5581   21.7582 O   0  0  0  0  0  0  0  0  0  0  0  0
   11.5899    8.7373   20.9257 C   0  0  0  0  0  0  0  0  0  0  0  0
   12.4704    7.7033   21.3373 N   0  0  0  0  0  0  0  0  0  0  0  0
   13.2345    6.9216   20.4292 C   0  0  0  0  0  0  0  0  0  0  0  0
   12.7614    6.8442   19.0301 C   0  0  0  0  0  0  0  0  0  0  0  0
   11.8539    7.9092   18.6057 C   0  0  0  0  0  0  0  0  0  0  0  0
   11.5452    8.0181   17.2647 C   0  0  0  0  0  0  0  0  0  0  0  0
   12.0916    7.1228   16.3245 O   0  0  0  0  0  0  0  0  0  0  0  0
   11.7428    7.2838   14.9858 C   0  0  0  0  0  0  0  0  0  0  0  0
   12.3352    6.3253   14.0224 C   0  0  0  0  0  0  0  0  0  0  0  0
   12.0144    4.8860   14.2246 C   0  0  0  0  0  0  0  0  0  0  0  0
   12.4286    4.2856   15.5199 C   0  0  0  0  0  0  0  0  0  0  0  0
   12.0422    2.8808   15.5249 N   0  0  0  0  0  0  0  0  0  0  0  0
   12.7050    2.1455   16.5843 C   0  0  0  0  0  0  0  0  0  0  0  0
   12.4412    2.8273   17.8800 C   0  0  0  0  0  0  0  0  0  0  0  0
   10.9858    3.0507   18.1721 C   0  0  0  0  0  0  0  0  0  0  0  0
   10.1633    3.3603   16.9600 C   0  0  0  0  0  0  0  0  0  0  0  0
   10.6214    2.6898   15.7160 C   0  0  0  0  0  0  0  0  0  0  0  0
   10.6871    9.0296   16.8817 C   0  0  0  0  0  0  0  0  0  0  0  0
   10.1303    9.9269   17.7694 C   0  0  0  0  0  0  0  0  0  0  0  0
   10.4361    9.8191   19.0975 C   0  0  0  0  0  0  0  0  0  0  0  0
   11.2903    8.8152   19.4935 C   0  0  0  0  0  0  0  0  0  0  0  0
  1  2  2  0
  2  3  1  0
  3  4  1  0
  4  5  1  0
  5  6  1  0
  6  7  2  0
  7  8  1  0
  8  9  1  0
  9 10  1  0
 10 11  1  0
 11 12  1  0
 12 13  1  0
 13 14  1  0
 14 15  1  0
 15 16  1  0
 16 17  1  0
 17 18  1  0
  7 19  1  0
 19 20  2  0
 20 21  1  0
 21 22  2  0
 22  2  1  0
 22  6  1  0
 18 13  1  0
M  CHG  1  13   1
M  END
>  <shape_align_shape_tanimoto>  (2) 
0.65456586910516668

>  <shape_align_color_tanimoto>  (2) 
0.21709435952008524

>  <metric>  (2) 
color

>  <metric_score>  (2) 
0.217

>  <template_pid>  (2) 
4TK0

>  <template_shape_score>  (2) 
0.655

>  <template_color_score>  (2) 
0.217

>  <template_combo_score>  (2) 
0.436

$$$$
4TK0_combo_pose
     RDKit          3D

 22 24  0  0  0  0  0  0  0  0999 V2000
   12.4426    3.8317   12.7291 O   0  0  0  0  0  0  0  0  0  0  0  0
   12.2270    3.7871   13.9695 C   0  0  0  0  0  0  0  0  0  0  0  0
   12.1218    2.5311   14.6309 N   0  0  0  0  0  0  0  0  0  0  0  0
   12.4760    2.5375   16.0582 C   0  0  0  0  0  0  0  0  0  0  0  0
   11.7321    3.6089   16.7987 C   0  0  0  0  0  0  0  0  0  0  0  0
   11.8419    4.9482   16.1264 C   0  0  0  0  0  0  0  0  0  0  0  0
   11.6974    6.1128   16.9132 C   0  0  0  0  0  0  0  0  0  0  0  0
   11.4726    5.9515   18.1987 O   0  0  0  0  0  0  0  0  0  0  0  0
   11.2607    6.3698   19.4326 C   0  0  0  0  0  0  0  0  0  0  0  0
   12.2933    7.1683   20.1717 C   0  0  0  0  0  0  0  0  0  0  0  0
   12.6434    8.4752   19.5469 C   0  0  0  0  0  0  0  0  0  0  0  0
   11.5113    9.4409   19.4490 C   0  0  0  0  0  0  0  0  0  0  0  0
   10.9287    9.8988   20.6461 N   0  0  0  0  0  0  0  0  0  0  0  0
   11.7078    9.9927   21.8246 C   0  0  0  0  0  0  0  0  0  0  0  0
   10.9498    9.4911   23.0479 C   0  0  0  0  0  0  0  0  0  0  0  0
    9.6159   10.1565   23.2138 C   0  0  0  0  0  0  0  0  0  0  0  0
    8.8628   10.0971   21.9132 C   0  0  0  0  0  0  0  0  0  0  0  0
    9.6434    9.2632   20.9276 C   0  0  0  0  0  0  0  0  0  0  0  0
   11.8116    7.2928   16.2109 C   0  0  0  0  0  0  0  0  0  0  0  0
   12.0473    7.3660   14.8561 C   0  0  0  0  0  0  0  0  0  0  0  0
   12.1752    6.1961   14.1670 C   0  0  0  0  0  0  0  0  0  0  0  0
   12.0752    4.9889   14.7857 C   0  0  0  0  0  0  0  0  0  0  0  0
  1  2  2  0
  2  3  1  0
  3  4  1  0
  4  5  1  0
  5  6  1  0
  6  7  2  0
  7  8  1  0
  8  9  1  0
  9 10  1  0
 10 11  1  0
 11 12  1  0
 12 13  1  0
 13 14  1  0
 14 15  1  0
 15 16  1  0
 16 17  1  0
 17 18  1  0
  7 19  1  0
 19 20  2  0
 20 21  1  0
 21 22  2  0
 22  2  1  0
 22  6  1  0
 18 13  1  0
M  CHG  1  13   1
M  END
>  <shape_align_shape_tanimoto>  (3) 
0.76069866027691679

>  <shape_align_color_tanimoto>  (3) 
0.12527878199841033

>  <metric>  (3) 
combo

>  <metric_score>  (3) 
0.443

>  <template_pid>  (3) 
4TK0

>  <template_shape_score>  (3) 
0.761

>  <template_color_score>  (3) 
0.125

>  <template_combo_score>  (3) 
0.443

$$$$
