2LGF_shape_pose
     RDKit          3D

130132  0  0  0  0  0  0  0  0999 V2000
   17.0677    8.8161    1.7411 C   0  0  0  0  0  0  0  0  0  0  0  0
   16.0152    9.6816    2.3970 C   0  0  0  0  0  0  0  0  0  0  0  0
   16.2711   11.1355    2.1636 C   0  0  2  0  0  0  0  0  0  0  0  0
   17.6060   11.5088    2.7372 C   0  0  0  0  0  0  0  0  0  0  0  0
   15.1598   12.0477    2.7048 C   0  0  2  0  0  0  0  0  0  0  0  0
   15.1024   11.7203    4.1262 N   0  0  0  0  0  0  0  0  0  0  0  0
   15.7742   12.6349    4.9858 C   0  0  0  0  0  0  0  0  0  0  0  0
   16.3948   13.6407    4.5155 O   0  0  0  0  0  0  0  0  0  0  0  0
   15.8186   12.5106    6.4663 C   0  0  2  0  0  0  0  0  0  0  0  0
   14.5358   13.0883    7.0433 C   0  0  0  0  0  0  0  0  0  0  0  0
   14.4595   13.0464    8.5047 C   0  0  0  0  0  0  0  0  0  0  0  0
   14.9882   14.1330    9.2080 C   0  0  0  0  0  0  0  0  0  0  0  0
   14.9544   14.2158   10.5786 C   0  0  0  0  0  0  0  0  0  0  0  0
   14.3834   13.2014   11.3071 C   0  0  0  0  0  0  0  0  0  0  0  0
   13.8635   12.1346   10.6120 C   0  0  0  0  0  0  0  0  0  0  0  0
   13.8847   12.0246    9.2344 C   0  0  0  0  0  0  0  0  0  0  0  0
   16.8691   13.4550    6.9093 N   0  0  0  0  0  0  0  0  0  0  0  0
   17.8858   12.8694    7.7125 C   0  0  0  0  0  0  0  0  0  0  0  0
   17.8875   11.6536    8.0378 O   0  0  0  0  0  0  0  0  0  0  0  0
   19.0090   13.7235    8.2023 C   0  0  2  0  0  0  0  0  0  0  0  0
   18.9098   13.6998    9.7220 C   0  0  0  0  0  0  0  0  0  0  0  0
   18.9246   15.0631    7.6685 N   0  0  0  0  0  0  0  0  0  0  0  0
   13.9091   11.7812    1.9941 C   0  0  0  0  0  0  0  0  0  0  0  0
   13.7076   12.5289    0.9533 O   0  0  0  0  0  0  0  0  0  0  0  0
   12.9271   10.8226    2.3115 N   0  0  0  0  0  0  0  0  0  0  0  0
   11.6690   10.6815    1.5299 C   0  0  2  0  0  0  0  0  0  0  0  0
   10.8449    9.7258    2.3092 C   0  0  0  0  0  0  0  0  0  0  0  0
   11.4733    9.2417    3.3278 O   0  0  0  0  0  0  0  0  0  0  0  0
    9.5583    9.2921    2.1094 N   0  0  0  0  0  0  0  0  0  0  0  0
    8.7702    8.3357    2.8154 C   0  0  1  0  0  0  0  0  0  0  0  0
    9.5356    7.2412    3.5330 C   0  0  0  0  0  0  0  0  0  0  0  0
   10.3651    6.3580    2.7379 C   0  0  0  0  0  0  0  0  0  0  0  0
   11.7530    6.2372    2.6566 C   0  0  0  0  0  0  0  0  0  0  0  0
   12.1146    5.2680    1.8106 N   0  0  0  0  0  0  0  0  0  0  0  0
   10.9946    4.7152    1.3067 C   0  0  0  0  0  0  0  0  0  0  0  0
   10.8980    3.6776    0.4102 C   0  0  0  0  0  0  0  0  0  0  0  0
    9.6344    3.2347    0.0211 C   0  0  0  0  0  0  0  0  0  0  0  0
    8.5428    3.8693    0.5645 C   0  0  0  0  0  0  0  0  0  0  0  0
    8.6552    4.9269    1.4735 C   0  0  0  0  0  0  0  0  0  0  0  0
    9.9141    5.3619    1.8566 C   0  0  0  0  0  0  0  0  0  0  0  0
    7.8050    8.8922    3.7702 C   0  0  0  0  0  0  0  0  0  0  0  0
    6.8462    8.1588    4.2105 O   0  0  0  0  0  0  0  0  0  0  0  0
    7.9485   10.2431    4.2033 N   0  0  0  0  0  0  0  0  0  0  0  0
    6.9647   10.8211    5.1739 C   0  0  1  0  0  0  0  0  0  0  0  0
    7.6338   10.5164    6.4915 C   0  0  0  0  0  0  0  0  0  0  0  0
    7.0448   10.8411    7.7740 C   0  0  0  0  0  0  0  0  0  0  0  0
    6.8133   12.2604    8.0901 C   0  0  0  0  0  0  0  0  0  0  0  0
    7.8006   10.1305    8.9116 C   0  0  0  0  0  0  0  0  0  0  0  0
    6.8727   12.2468    4.8945 C   0  0  0  0  0  0  0  0  0  0  0  0
    6.0417   13.0205    5.5047 O   0  0  0  0  0  0  0  0  0  0  0  0
    7.6683   12.9584    3.9369 N   0  0  0  0  0  0  0  0  0  0  0  0
    7.5882   14.3827    3.7132 C   0  0  1  0  0  0  0  0  0  0  0  0
    8.9521   15.0451    3.9126 C   0  0  0  0  0  0  0  0  0  0  0  0
    6.8702   14.8458    2.5449 C   0  0  0  0  0  0  0  0  0  0  0  0
    7.0491   16.0969    2.2356 O   0  0  0  0  0  0  0  0  0  0  0  0
    5.9977   14.1408    1.6938 N   0  0  0  0  0  0  0  0  0  0  0  0
    5.3710   14.8274    0.5400 C   0  0  1  0  0  0  0  0  0  0  0  0
    5.3149   14.0206   -0.6828 C   0  0  0  0  0  0  0  0  0  0  0  0
    4.6883   14.8296   -1.8292 C   0  0  0  0  0  0  0  0  0  0  0  0
    5.4575   16.0687   -2.1309 C   0  0  0  0  0  0  0  0  0  0  0  0
    4.9536   16.8920   -3.2006 N   0  0  0  0  0  0  0  0  0  0  0  0
    4.9256   16.5586   -4.5635 C   0  0  0  0  0  0  0  0  0  0  0  0
    4.3588   17.5098   -5.4945 N   0  0  0  0  0  0  0  0  0  0  0  0
    5.3628   15.4547   -5.0361 N   0  0  0  0  0  0  0  0  0  0  0  0
    4.1877   15.5861    0.9545 C   0  0  0  0  0  0  0  0  0  0  0  0
    3.3705   16.2172    0.2860 O   0  0  0  0  0  0  0  0  0  0  0  0
    3.9310   15.6261    2.3973 N   0  0  0  0  0  0  0  0  0  0  0  0
    2.8188   16.4089    2.9003 C   0  0  1  0  0  0  0  0  0  0  0  0
    2.0862   16.0068    4.0798 C   0  0  0  0  0  0  0  0  0  0  0  0
    2.7981   15.8397    5.3827 C   0  0  0  0  0  0  0  0  0  0  0  0
    1.6848   15.5266    6.4062 C   0  0  0  0  0  0  0  0  0  0  0  0
    2.2015   15.3650    7.7425 N   0  0  0  0  0  0  0  0  0  0  0  0
    1.2582   15.2334    8.7948 C   0  0  0  0  0  0  0  0  0  0  0  0
    1.7041   15.0640   10.1311 N   0  0  0  0  0  0  0  0  0  0  0  0
   -0.0444   15.2551    8.5657 N   0  0  0  0  0  0  0  0  0  0  0  0
    3.2967   17.8483    2.9695 C   0  0  0  0  0  0  0  0  0  0  0  0
    4.3178   18.0621    2.2246 O   0  0  0  0  0  0  0  0  0  0  0  0
    2.7029   18.8479    3.7644 N   0  0  0  0  0  0  0  0  0  0  0  0
    3.4207   20.1809    3.6382 C   0  0  1  0  0  0  0  0  0  0  0  0
    2.7801   21.1210    4.5416 C   0  0  0  0  0  0  0  0  0  0  0  0
    3.2425   22.5233    4.6614 C   0  0  0  0  0  0  0  0  0  0  0  0
    2.3172   23.2017    5.7057 C   0  0  0  0  0  0  0  0  0  0  0  0
    4.6333   22.7598    5.1380 C   0  0  0  0  0  0  0  0  0  0  0  0
    4.8165   19.7333    3.9915 C   0  0  0  0  0  0  0  0  0  0  0  0
    4.7471   18.5904    4.6251 O   0  0  0  0  0  0  0  0  0  0  0  0
    6.0221   20.3013    3.7460 N   0  0  0  0  0  0  0  0  0  0  0  0
    7.3772   19.8926    4.0701 C   0  0  1  0  0  0  0  0  0  0  0  0
    7.4095   18.6383    4.9284 C   0  0  0  0  0  0  0  0  0  0  0  0
    6.8394   18.7554    6.2738 C   0  0  0  0  0  0  0  0  0  0  0  0
    6.8079   17.3539    6.9325 C   0  0  0  0  0  0  0  0  0  0  0  0
    6.2022   17.3898    8.2888 C   0  0  0  0  0  0  0  0  0  0  0  0
    6.1773   16.0434    8.8708 N   0  0  0  0  0  0  0  0  0  0  0  0
    8.1863   19.7521    2.8704 C   0  0  0  0  0  0  0  0  0  0  0  0
    7.5606   19.7927    1.7466 O   0  0  0  0  0  0  0  0  0  0  0  0
    9.5987   19.5709    2.7971 N   0  0  0  0  0  0  0  0  0  0  0  0
   10.1581   19.4097    1.4764 C   0  0  1  0  0  0  0  0  0  0  0  0
   10.6805   20.8141    1.0247 C   0  0  0  0  0  0  0  0  0  0  0  0
   11.2725   20.7226   -0.3436 C   0  0  0  0  0  0  0  0  0  0  0  0
   11.7416   22.0866   -0.7922 C   0  0  0  0  0  0  0  0  0  0  0  0
   12.8012   22.6055    0.1233 C   0  0  0  0  0  0  0  0  0  0  0  0
   13.2791   23.9120   -0.3186 N   0  0  0  0  0  0  0  0  0  0  0  0
   11.3353   18.5464    1.4182 C   0  0  0  0  0  0  0  0  0  0  0  0
   11.7774   17.9934    0.3564 O   0  0  0  0  0  0  0  0  0  0  0  0
   12.1169   18.2543    2.5934 N   0  0  0  0  0  0  0  0  0  0  0  0
   13.2868   17.4114    2.5705 C   0  0  0  0  0  0  0  0  0  0  0  0
   13.9116   17.4024    3.9356 C   0  0  0  0  0  0  0  0  0  0  0  0
   14.9591   16.6825    4.0394 O   0  0  0  0  0  0  0  0  0  0  0  0
   13.4529   18.0952    5.0380 N   0  0  0  0  0  0  0  0  0  0  0  0
   13.9872   18.1692    6.3922 C   0  0  1  0  0  0  0  0  0  0  0  0
   14.0863   19.5692    6.8612 C   0  0  0  0  0  0  0  0  0  0  0  0
   14.9637   20.3870    5.9472 C   0  0  0  0  0  0  0  0  0  0  0  0
   16.3515   19.8059    5.8978 C   0  0  0  0  0  0  0  0  0  0  0  0
   17.2267   20.6420    4.9732 C   0  0  0  0  0  0  0  0  0  0  0  0
   18.5738   20.1013    4.9232 N   0  0  0  0  0  0  0  0  0  0  0  0
   13.0224   17.3674    7.2346 C   0  0  0  0  0  0  0  0  0  0  0  0
   12.5310   16.3236    6.7474 O   0  0  0  0  0  0  0  0  0  0  0  0
   12.7106   17.8532    8.5324 N   0  0  0  0  0  0  0  0  0  0  0  0
   11.7527   17.0541    9.2922 C   0  0  1  0  0  0  0  0  0  0  0  0
   11.1957   17.7824   10.4496 C   0  0  0  0  0  0  0  0  0  0  0  0
   10.2104   17.0364   11.3083 C   0  0  0  0  0  0  0  0  0  0  0  0
    9.6972   17.9720   12.4114 C   0  0  0  0  0  0  0  0  0  0  0  0
    8.9679   19.1558   11.8651 C   0  0  0  0  0  0  0  0  0  0  0  0
    8.4856   19.9879   12.9631 N   0  0  0  0  0  0  0  0  0  0  0  0
   10.5164   16.8999    8.3383 C   0  0  0  0  0  0  0  0  0  0  0  0
   10.4073   17.7024    7.3788 O   0  0  0  0  0  0  0  0  0  0  0  0
    9.6221   15.8874    8.6170 O   0  0  0  0  0  0  0  0  0  0  0  0
   11.9819   10.1483    0.1338 C   0  0  1  0  0  0  0  0  0  0  0  0
   12.5355    8.7521    0.1279 C   0  0  0  0  0  0  0  0  0  0  0  0
   10.9027   10.3039   -0.8681 C   0  0  0  0  0  0  0  0  0  0  0  0
   11.3211    9.7682   -2.2427 C   0  0  0  0  0  0  0  0  0  0  0  0
  1  2  1  0
  2  3  1  0
  3  4  1  1
  3  5  1  0
  5  6  1  1
  6  7  1  0
  7  8  2  0
  7  9  1  0
  9 10  1  1
 10 11  1  0
 11 12  2  0
 12 13  1  0
 13 14  2  0
 14 15  1  0
 15 16  2  0
  9 17  1  0
 17 18  1  0
 18 19  2  0
 18 20  1  0
 20 21  1  1
 20 22  1  0
  5 23  1  0
 23 24  2  0
 23 25  1  0
 26 25  1  1
 26 27  1  0
 27 28  2  0
 27 29  1  0
 29 30  1  0
 30 31  1  1
 31 32  1  0
 32 33  2  0
 33 34  1  0
 34 35  1  0
 35 36  2  0
 36 37  1  0
 37 38  2  0
 38 39  1  0
 39 40  2  0
 30 41  1  0
 41 42  2  0
 41 43  1  0
 43 44  1  0
 44 45  1  1
 45 46  1  0
 46 47  1  0
 46 48  1  0
 44 49  1  0
 49 50  2  0
 49 51  1  0
 51 52  1  0
 52 53  1  6
 52 54  1  0
 54 55  2  0
 54 56  1  0
 56 57  1  0
 57 58  1  6
 58 59  1  0
 59 60  1  0
 60 61  1  0
 61 62  1  0
 62 63  1  0
 62 64  2  0
 57 65  1  0
 65 66  2  0
 65 67  1  0
 67 68  1  0
 68 69  1  1
 69 70  1  0
 70 71  1  0
 71 72  1  0
 72 73  1  0
 73 74  1  0
 73 75  2  0
 68 76  1  0
 76 77  2  0
 76 78  1  0
 78 79  1  0
 79 80  1  1
 80 81  1  0
 81 82  1  0
 81 83  1  0
 79 84  1  0
 84 85  2  0
 84 86  1  0
 86 87  1  0
 87 88  1  6
 88 89  1  0
 89 90  1  0
 90 91  1  0
 91 92  1  0
 87 93  1  0
 93 94  2  0
 93 95  1  0
 95 96  1  0
 96 97  1  1
 97 98  1  0
 98 99  1  0
 99100  1  0
100101  1  0
 96102  1  0
102103  2  0
102104  1  0
104105  1  0
105106  1  0
106107  2  0
106108  1  0
108109  1  0
109110  1  1
110111  1  0
111112  1  0
112113  1  0
113114  1  0
109115  1  0
115116  2  0
115117  1  0
117118  1  0
118119  1  1
119120  1  0
120121  1  0
121122  1  0
122123  1  0
118124  1  0
124125  2  0
124126  1  0
 26127  1  0
127128  1  1
127129  1  0
129130  1  0
 16 11  1  0
 40 32  1  0
 40 35  1  0
M  CHG  8  22   1  64   1  75   1  92   1 101   1 114   1 123   1 126  -1
M  END
>  <shape_align_shape_tanimoto>  (1) 
0.28830625787773695

>  <shape_align_color_tanimoto>  (1) 
0.0093657237947776129

>  <metric>  (1) 
shape

>  <metric_score>  (1) 
0.288

>  <template_pid>  (1) 
2LGF

>  <template_shape_score>  (1) 
0.288

>  <template_color_score>  (1) 
0.009

>  <template_combo_score>  (1) 
0.149

$$$$
2LGF_color_pose
     RDKit          3D

130132  0  0  0  0  0  0  0  0999 V2000
   -0.3315   14.1294   -1.4476 C   0  0  0  0  0  0  0  0  0  0  0  0
   -0.6376   14.8691   -0.1766 C   0  0  0  0  0  0  0  0  0  0  0  0
    0.3847   15.8167    0.2819 C   0  0  2  0  0  0  0  0  0  0  0  0
    0.7768   16.9007   -0.6922 C   0  0  0  0  0  0  0  0  0  0  0  0
    1.4606   15.2859    1.1381 C   0  0  2  0  0  0  0  0  0  0  0  0
    2.3936   16.3614    1.5233 N   0  0  0  0  0  0  0  0  0  0  0  0
    2.6026   16.8565    2.7853 C   0  0  0  0  0  0  0  0  0  0  0  0
    1.8965   16.3329    3.7455 O   0  0  0  0  0  0  0  0  0  0  0  0
    3.5237   17.9052    3.1787 C   0  0  2  0  0  0  0  0  0  0  0  0
    2.8256   19.0765    3.9392 C   0  0  0  0  0  0  0  0  0  0  0  0
    3.9538   20.0217    4.2665 C   0  0  0  0  0  0  0  0  0  0  0  0
    4.2346   21.1471    3.5546 C   0  0  0  0  0  0  0  0  0  0  0  0
    5.3993   21.8310    3.9469 C   0  0  0  0  0  0  0  0  0  0  0  0
    6.1328   21.3951    4.9315 C   0  0  0  0  0  0  0  0  0  0  0  0
    5.8941   20.2323    5.7105 C   0  0  0  0  0  0  0  0  0  0  0  0
    4.7594   19.5476    5.3321 C   0  0  0  0  0  0  0  0  0  0  0  0
    4.2886   18.5177    2.1326 N   0  0  0  0  0  0  0  0  0  0  0  0
    5.6772   18.5194    2.0736 C   0  0  0  0  0  0  0  0  0  0  0  0
    6.2809   17.9123    3.0435 O   0  0  0  0  0  0  0  0  0  0  0  0
    6.5585   19.0978    1.0719 C   0  0  2  0  0  0  0  0  0  0  0  0
    7.5053   20.0898    1.7793 C   0  0  0  0  0  0  0  0  0  0  0  0
    5.9367   19.8083    0.0114 N   0  0  0  0  0  0  0  0  0  0  0  0
    2.2756   14.1723    0.6541 C   0  0  0  0  0  0  0  0  0  0  0  0
    1.7493   13.0960    0.1289 O   0  0  0  0  0  0  0  0  0  0  0  0
    3.7199   14.1875    0.7364 N   0  0  0  0  0  0  0  0  0  0  0  0
    4.5371   13.0864    0.2446 C   0  0  2  0  0  0  0  0  0  0  0  0
    5.6656   12.8306    1.1191 C   0  0  0  0  0  0  0  0  0  0  0  0
    6.1614   11.6266    1.1137 O   0  0  0  0  0  0  0  0  0  0  0  0
    6.3244   13.7077    2.0012 N   0  0  0  0  0  0  0  0  0  0  0  0
    7.3966   13.2517    2.7870 C   0  0  1  0  0  0  0  0  0  0  0  0
    8.8064   13.4964    2.3742 C   0  0  0  0  0  0  0  0  0  0  0  0
    9.3609   12.9521    1.1645 C   0  0  0  0  0  0  0  0  0  0  0  0
   10.1730   11.6951    1.1547 C   0  0  0  0  0  0  0  0  0  0  0  0
   10.5437   11.5295   -0.1253 N   0  0  0  0  0  0  0  0  0  0  0  0
   10.1061   12.4803   -0.9537 C   0  0  0  0  0  0  0  0  0  0  0  0
   10.2303   12.7712   -2.3166 C   0  0  0  0  0  0  0  0  0  0  0  0
    9.6722   13.8240   -2.8232 C   0  0  0  0  0  0  0  0  0  0  0  0
    8.9339   14.7016   -2.0493 C   0  0  0  0  0  0  0  0  0  0  0  0
    8.7736   14.4806   -0.7173 C   0  0  0  0  0  0  0  0  0  0  0  0
    9.3988   13.2989   -0.1274 C   0  0  0  0  0  0  0  0  0  0  0  0
    7.2269   13.7012    4.1948 C   0  0  0  0  0  0  0  0  0  0  0  0
    8.2833   13.4490    4.9243 O   0  0  0  0  0  0  0  0  0  0  0  0
    6.1668   14.3237    4.8313 N   0  0  0  0  0  0  0  0  0  0  0  0
    6.3764   14.6561    6.2411 C   0  0  1  0  0  0  0  0  0  0  0  0
    5.4882   15.8124    6.5726 C   0  0  0  0  0  0  0  0  0  0  0  0
    5.6106   16.2381    8.0082 C   0  0  0  0  0  0  0  0  0  0  0  0
    4.6185   17.3610    8.3110 C   0  0  0  0  0  0  0  0  0  0  0  0
    6.9782   16.8408    8.3236 C   0  0  0  0  0  0  0  0  0  0  0  0
    5.9407   13.4893    7.0867 C   0  0  0  0  0  0  0  0  0  0  0  0
    5.0778   12.6401    6.6510 O   0  0  0  0  0  0  0  0  0  0  0  0
    6.4615   13.2409    8.3894 N   0  0  0  0  0  0  0  0  0  0  0  0
    6.0225   12.0719    9.0918 C   0  0  1  0  0  0  0  0  0  0  0  0
    4.6282   12.0740    9.5810 C   0  0  0  0  0  0  0  0  0  0  0  0
    6.4418   10.7735    8.4184 C   0  0  0  0  0  0  0  0  0  0  0  0
    6.0594    9.6718    8.7538 O   0  0  0  0  0  0  0  0  0  0  0  0
    7.3669   10.8886    7.3044 N   0  0  0  0  0  0  0  0  0  0  0  0
    7.8828    9.7952    6.5658 C   0  0  1  0  0  0  0  0  0  0  0  0
    8.9718    8.9654    7.0450 C   0  0  0  0  0  0  0  0  0  0  0  0
   10.3350    9.3954    7.2803 C   0  0  0  0  0  0  0  0  0  0  0  0
   10.7589   10.4968    8.1743 C   0  0  0  0  0  0  0  0  0  0  0  0
   10.3027   11.7692    7.7863 N   0  0  0  0  0  0  0  0  0  0  0  0
   10.4176   13.0583    8.2995 C   0  0  0  0  0  0  0  0  0  0  0  0
    9.8794   14.2686    7.8930 N   0  0  0  0  0  0  0  0  0  0  0  0
   11.1523   13.1138    9.4215 N   0  0  0  0  0  0  0  0  0  0  0  0
    6.7495    9.0412    5.9597 C   0  0  0  0  0  0  0  0  0  0  0  0
    5.6258    9.6955    6.1851 O   0  0  0  0  0  0  0  0  0  0  0  0
    6.7570    7.8314    5.2557 N   0  0  0  0  0  0  0  0  0  0  0  0
    5.6388    7.1186    4.7206 C   0  0  1  0  0  0  0  0  0  0  0  0
    4.2743    7.6861    5.1518 C   0  0  0  0  0  0  0  0  0  0  0  0
    3.9316    7.6041    6.5896 C   0  0  0  0  0  0  0  0  0  0  0  0
    2.6245    8.4093    6.7439 C   0  0  0  0  0  0  0  0  0  0  0  0
    1.5065    7.9026    6.0927 N   0  0  0  0  0  0  0  0  0  0  0  0
    0.3330    8.6010    5.9208 C   0  0  0  0  0  0  0  0  0  0  0  0
   -0.8373    8.2457    5.3023 N   0  0  0  0  0  0  0  0  0  0  0  0
    0.3230   10.0572    6.4957 N   0  0  0  0  0  0  0  0  0  0  0  0
    5.5035    6.9020    3.2991 C   0  0  0  0  0  0  0  0  0  0  0  0
    4.4492    6.2627    2.9170 O   0  0  0  0  0  0  0  0  0  0  0  0
    6.3623    7.3027    2.2689 N   0  0  0  0  0  0  0  0  0  0  0  0
    6.0354    7.0196    0.8551 C   0  0  1  0  0  0  0  0  0  0  0  0
    5.3213    8.1684    0.2337 C   0  0  0  0  0  0  0  0  0  0  0  0
    4.8083    7.9928   -1.1550 C   0  0  0  0  0  0  0  0  0  0  0  0
    4.0071    9.2673   -1.5270 C   0  0  0  0  0  0  0  0  0  0  0  0
    3.9231    6.8094   -1.3503 C   0  0  0  0  0  0  0  0  0  0  0  0
    7.3292    6.7497    0.2298 C   0  0  0  0  0  0  0  0  0  0  0  0
    7.3372    7.0393   -1.0668 O   0  0  0  0  0  0  0  0  0  0  0  0
    8.5065    6.2452    0.7307 N   0  0  0  0  0  0  0  0  0  0  0  0
    9.7461    5.9421    0.1082 C   0  0  1  0  0  0  0  0  0  0  0  0
    9.8232    5.9880   -1.3769 C   0  0  0  0  0  0  0  0  0  0  0  0
    8.9754    5.0179   -2.1336 C   0  0  0  0  0  0  0  0  0  0  0  0
    9.1053    5.2490   -3.6571 C   0  0  0  0  0  0  0  0  0  0  0  0
    8.2163    4.2788   -4.3442 C   0  0  0  0  0  0  0  0  0  0  0  0
    6.8336    4.4537   -4.0178 N   0  0  0  0  0  0  0  0  0  0  0  0
   10.9724    6.3868    0.7509 C   0  0  0  0  0  0  0  0  0  0  0  0
   12.0813    6.1259    0.2243 O   0  0  0  0  0  0  0  0  0  0  0  0
   10.9432    7.0910    1.9596 N   0  0  0  0  0  0  0  0  0  0  0  0
   12.0405    7.5504    2.7296 C   0  0  1  0  0  0  0  0  0  0  0  0
   12.9316    6.4416    3.1990 C   0  0  0  0  0  0  0  0  0  0  0  0
   12.2652    5.4737    4.1263 C   0  0  0  0  0  0  0  0  0  0  0  0
   11.1344    4.6715    3.6167 C   0  0  0  0  0  0  0  0  0  0  0  0
   10.5824    3.7874    4.7375 C   0  0  0  0  0  0  0  0  0  0  0  0
    9.4628    3.0199    4.2291 N   0  0  0  0  0  0  0  0  0  0  0  0
   12.8402    8.5289    1.8918 C   0  0  0  0  0  0  0  0  0  0  0  0
   12.7334    8.6326    0.6618 O   0  0  0  0  0  0  0  0  0  0  0  0
   13.7215    9.3294    2.7042 N   0  0  0  0  0  0  0  0  0  0  0  0
   14.5390   10.3364    2.0385 C   0  0  0  0  0  0  0  0  0  0  0  0
   15.2579   11.1698    2.9580 C   0  0  0  0  0  0  0  0  0  0  0  0
   15.1397   10.7905    4.2392 O   0  0  0  0  0  0  0  0  0  0  0  0
   16.0377   12.2988    2.7949 N   0  0  0  0  0  0  0  0  0  0  0  0
   16.6069   12.8802    4.0436 C   0  0  1  0  0  0  0  0  0  0  0  0
   17.1716   14.1906    3.7393 C   0  0  0  0  0  0  0  0  0  0  0  0
   18.2766   14.2170    2.7308 C   0  0  0  0  0  0  0  0  0  0  0  0
   18.6532   15.6809    2.5509 C   0  0  0  0  0  0  0  0  0  0  0  0
   19.7841   15.8699    1.5931 C   0  0  0  0  0  0  0  0  0  0  0  0
   20.1116   17.2928    1.5004 N   0  0  0  0  0  0  0  0  0  0  0  0
   15.3370   13.1795    4.8772 C   0  0  0  0  0  0  0  0  0  0  0  0
   14.2193   13.0883    4.3601 O   0  0  0  0  0  0  0  0  0  0  0  0
   15.5865   13.5282    6.2120 N   0  0  0  0  0  0  0  0  0  0  0  0
   14.4879   13.7850    7.1591 C   0  0  1  0  0  0  0  0  0  0  0  0
   14.9122   13.2277    8.5102 C   0  0  0  0  0  0  0  0  0  0  0  0
   15.1655   11.7580    8.4567 C   0  0  0  0  0  0  0  0  0  0  0  0
   15.6693   11.1882    9.7665 C   0  0  0  0  0  0  0  0  0  0  0  0
   14.7505   11.3827   10.9307 C   0  0  0  0  0  0  0  0  0  0  0  0
   15.2766   10.7783   12.1385 N   0  0  0  0  0  0  0  0  0  0  0  0
   14.3600   15.2663    7.3229 C   0  0  0  0  0  0  0  0  0  0  0  0
   13.3251   15.6565    7.9096 O   0  0  0  0  0  0  0  0  0  0  0  0
   15.3607   16.0980    6.8400 O   0  0  0  0  0  0  0  0  0  0  0  0
    5.1457   13.5310   -1.0970 C   0  0  1  0  0  0  0  0  0  0  0  0
    5.9207   12.4068   -1.6934 C   0  0  0  0  0  0  0  0  0  0  0  0
    4.1132   14.0223   -2.0831 C   0  0  0  0  0  0  0  0  0  0  0  0
    4.8653   14.4246   -3.3491 C   0  0  0  0  0  0  0  0  0  0  0  0
  1  2  1  0
  2  3  1  0
  3  4  1  6
  3  5  1  0
  5  6  1  6
  6  7  1  0
  7  8  2  0
  7  9  1  0
  9 10  1  6
 10 11  1  0
 11 12  2  0
 12 13  1  0
 13 14  2  0
 14 15  1  0
 15 16  2  0
  9 17  1  0
 17 18  1  0
 18 19  2  0
 18 20  1  0
 20 21  1  1
 20 22  1  0
  5 23  1  0
 23 24  2  0
 23 25  1  0
 26 25  1  1
 26 27  1  0
 27 28  2  0
 27 29  1  0
 29 30  1  0
 30 31  1  6
 31 32  1  0
 32 33  2  0
 33 34  1  0
 34 35  1  0
 35 36  2  0
 36 37  1  0
 37 38  2  0
 38 39  1  0
 39 40  2  0
 30 41  1  0
 41 42  2  0
 41 43  1  0
 43 44  1  0
 44 45  1  1
 45 46  1  0
 46 47  1  0
 46 48  1  0
 44 49  1  0
 49 50  2  0
 49 51  1  0
 51 52  1  0
 52 53  1  6
 52 54  1  0
 54 55  2  0
 54 56  1  0
 56 57  1  0
 57 58  1  1
 58 59  1  0
 59 60  1  0
 60 61  1  0
 61 62  1  0
 62 63  1  0
 62 64  2  0
 57 65  1  0
 65 66  2  0
 65 67  1  0
 67 68  1  0
 68 69  1  6
 69 70  1  0
 70 71  1  0
 71 72  1  0
 72 73  1  0
 73 74  1  0
 73 75  2  0
 68 76  1  0
 76 77  2  0
 76 78  1  0
 78 79  1  0
 79 80  1  6
 80 81  1  0
 81 82  1  0
 81 83  1  0
 79 84  1  0
 84 85  2  0
 84 86  1  0
 86 87  1  0
 87 88  1  6
 88 89  1  0
 89 90  1  0
 90 91  1  0
 91 92  1  0
 87 93  1  0
 93 94  2  0
 93 95  1  0
 95 96  1  0
 96 97  1  6
 97 98  1  0
 98 99  1  0
 99100  1  0
100101  1  0
 96102  1  0
102103  2  0
102104  1  0
104105  1  0
105106  1  0
106107  2  0
106108  1  0
108109  1  0
109110  1  6
110111  1  0
111112  1  0
112113  1  0
113114  1  0
109115  1  0
115116  2  0
115117  1  0
117118  1  0
118119  1  1
119120  1  0
120121  1  0
121122  1  0
122123  1  0
118124  1  0
124125  2  0
124126  1  0
 26127  1  0
127128  1  6
127129  1  0
129130  1  0
 16 11  1  0
 40 32  1  0
 40 35  1  0
M  CHG  8  22   1  64   1  75   1  92   1 101   1 114   1 123   1 126  -1
M  END
>  <shape_align_shape_tanimoto>  (2) 
0.24309976100276928

>  <shape_align_color_tanimoto>  (2) 
0.038202803242567904

>  <metric>  (2) 
color

>  <metric_score>  (2) 
0.038

>  <template_pid>  (2) 
2LGF

>  <template_shape_score>  (2) 
0.243

>  <template_color_score>  (2) 
0.038

>  <template_combo_score>  (2) 
0.141

$$$$
2LGF_combo_pose
     RDKit          3D

130132  0  0  0  0  0  0  0  0999 V2000
    9.0816   19.5270   -0.7414 C   0  0  0  0  0  0  0  0  0  0  0  0
   10.0812   18.9819    0.1922 C   0  0  0  0  0  0  0  0  0  0  0  0
    9.8387   19.2876    1.6555 C   0  0  2  0  0  0  0  0  0  0  0  0
   10.9700   18.6640    2.4682 C   0  0  0  0  0  0  0  0  0  0  0  0
    8.4841   19.0429    2.1674 C   0  0  2  0  0  0  0  0  0  0  0  0
    7.4620   19.8486    1.4729 N   0  0  0  0  0  0  0  0  0  0  0  0
    7.3304   21.2601    1.7607 C   0  0  0  0  0  0  0  0  0  0  0  0
    8.0695   21.8354    2.5994 O   0  0  0  0  0  0  0  0  0  0  0  0
    6.3103   22.0271    1.0520 C   0  0  2  0  0  0  0  0  0  0  0  0
    5.5006   22.9841    1.8527 C   0  0  0  0  0  0  0  0  0  0  0  0
    4.7173   22.4269    2.9473 C   0  0  0  0  0  0  0  0  0  0  0  0
    5.2504   22.3889    4.2132 C   0  0  0  0  0  0  0  0  0  0  0  0
    4.5889   21.8683    5.3083 C   0  0  0  0  0  0  0  0  0  0  0  0
    3.3043   21.3610    5.0737 C   0  0  0  0  0  0  0  0  0  0  0  0
    2.7712   21.3995    3.8055 C   0  0  0  0  0  0  0  0  0  0  0  0
    3.4322   21.9194    2.7132 C   0  0  0  0  0  0  0  0  0  0  0  0
    5.5004   21.2103    0.1421 N   0  0  0  0  0  0  0  0  0  0  0  0
    5.4932   21.4587   -1.2608 C   0  0  0  0  0  0  0  0  0  0  0  0
    6.2022   22.4056   -1.7519 O   0  0  0  0  0  0  0  0  0  0  0  0
    4.6456   20.5951   -2.1384 C   0  0  2  0  0  0  0  0  0  0  0  0
    5.0451   19.1491   -2.0552 C   0  0  0  0  0  0  0  0  0  0  0  0
    4.7175   21.1188   -3.4797 N   0  0  0  0  0  0  0  0  0  0  0  0
    8.1823   19.1281    3.5811 C   0  0  0  0  0  0  0  0  0  0  0  0
    7.1118   19.8035    3.8849 O   0  0  0  0  0  0  0  0  0  0  0  0
    8.8416   18.6026    4.7104 N   0  0  0  0  0  0  0  0  0  0  0  0
    8.2417   18.8723    6.0040 C   0  0  2  0  0  0  0  0  0  0  0  0
    6.9948   18.0737    6.1089 C   0  0  0  0  0  0  0  0  0  0  0  0
    6.1459   18.2787    7.0389 O   0  0  0  0  0  0  0  0  0  0  0  0
    6.6964   17.0496    5.1918 N   0  0  0  0  0  0  0  0  0  0  0  0
    5.4307   16.2423    5.2976 C   0  0  1  0  0  0  0  0  0  0  0  0
    5.0539   15.8004    3.9639 C   0  0  0  0  0  0  0  0  0  0  0  0
    3.8809   14.9924    3.6761 C   0  0  0  0  0  0  0  0  0  0  0  0
    2.6062   15.5702    3.4718 C   0  0  0  0  0  0  0  0  0  0  0  0
    1.7051   14.6074    3.2666 N   0  0  0  0  0  0  0  0  0  0  0  0
    2.3064   13.3964    3.3220 C   0  0  0  0  0  0  0  0  0  0  0  0
    1.8526   12.1117    3.1553 C   0  0  0  0  0  0  0  0  0  0  0  0
    2.6924   11.0427    3.2270 C   0  0  0  0  0  0  0  0  0  0  0  0
    4.0419   11.2918    3.4783 C   0  0  0  0  0  0  0  0  0  0  0  0
    4.4817   12.5783    3.6444 C   0  0  0  0  0  0  0  0  0  0  0  0
    3.6355   13.6540    3.5729 C   0  0  0  0  0  0  0  0  0  0  0  0
    5.5545   15.3484    6.4227 C   0  0  0  0  0  0  0  0  0  0  0  0
    6.6492   15.4577    7.0990 O   0  0  0  0  0  0  0  0  0  0  0  0
    4.6611   14.3754    6.9252 N   0  0  0  0  0  0  0  0  0  0  0  0
    4.9990   13.6851    8.1385 C   0  0  1  0  0  0  0  0  0  0  0  0
    3.7835   13.6292    9.0603 C   0  0  0  0  0  0  0  0  0  0  0  0
    3.2226   14.9245    9.4925 C   0  0  0  0  0  0  0  0  0  0  0  0
    2.7309   15.8435    8.4243 C   0  0  0  0  0  0  0  0  0  0  0  0
    1.9843   14.5888   10.3514 C   0  0  0  0  0  0  0  0  0  0  0  0
    5.4946   12.3085    8.0770 C   0  0  0  0  0  0  0  0  0  0  0  0
    5.8516   11.7877    9.1927 O   0  0  0  0  0  0  0  0  0  0  0  0
    5.6234   11.4893    6.9526 N   0  0  0  0  0  0  0  0  0  0  0  0
    6.1285   10.1110    6.9720 C   0  0  1  0  0  0  0  0  0  0  0  0
    4.9644    9.1887    6.6661 C   0  0  0  0  0  0  0  0  0  0  0  0
    7.1650   10.0557    5.9273 C   0  0  0  0  0  0  0  0  0  0  0  0
    7.4107   11.1340    5.3115 O   0  0  0  0  0  0  0  0  0  0  0  0
    7.8920    8.8840    5.5701 N   0  0  0  0  0  0  0  0  0  0  0  0
    8.8633    9.0503    4.5074 C   0  0  1  0  0  0  0  0  0  0  0  0
   10.2197    8.5246    4.8288 C   0  0  0  0  0  0  0  0  0  0  0  0
   10.2526    7.0400    5.1543 C   0  0  0  0  0  0  0  0  0  0  0  0
   11.7217    6.7261    5.4169 C   0  0  0  0  0  0  0  0  0  0  0  0
   12.5451    7.0130    4.2799 N   0  0  0  0  0  0  0  0  0  0  0  0
   12.5381    6.3323    3.0563 C   0  0  0  0  0  0  0  0  0  0  0  0
   13.4387    6.7710    2.0133 N   0  0  0  0  0  0  0  0  0  0  0  0
   11.7759    5.3300    2.7918 N   0  0  0  0  0  0  0  0  0  0  0  0
    8.3150    8.4530    3.2253 C   0  0  0  0  0  0  0  0  0  0  0  0
    7.3129    7.7632    3.3571 O   0  0  0  0  0  0  0  0  0  0  0  0
    9.0136    8.7687    2.0560 N   0  0  0  0  0  0  0  0  0  0  0  0
    8.8781    8.4521    0.7043 C   0  0  1  0  0  0  0  0  0  0  0  0
    7.6576    7.8298    0.1272 C   0  0  0  0  0  0  0  0  0  0  0  0
    7.1818    6.5091    0.5261 C   0  0  0  0  0  0  0  0  0  0  0  0
    8.2821    5.4530    0.2666 C   0  0  0  0  0  0  0  0  0  0  0  0
    7.7327    4.1648    0.6693 N   0  0  0  0  0  0  0  0  0  0  0  0
    8.4130    2.9427    0.6057 C   0  0  0  0  0  0  0  0  0  0  0  0
    7.7797    1.7500    1.0222 N   0  0  0  0  0  0  0  0  0  0  0  0
    9.6315    2.9521    0.1555 N   0  0  0  0  0  0  0  0  0  0  0  0
    9.1518    9.6425   -0.1817 C   0  0  0  0  0  0  0  0  0  0  0  0
    9.1449    9.3855   -1.4143 O   0  0  0  0  0  0  0  0  0  0  0  0
    9.3837   10.9293    0.3437 N   0  0  0  0  0  0  0  0  0  0  0  0
    9.6227   12.1175   -0.4757 C   0  0  1  0  0  0  0  0  0  0  0  0
    8.4343   13.0428   -0.1961 C   0  0  0  0  0  0  0  0  0  0  0  0
    8.4303   14.3325   -0.9235 C   0  0  0  0  0  0  0  0  0  0  0  0
    7.1585   15.1039   -0.5001 C   0  0  0  0  0  0  0  0  0  0  0  0
    8.3356   14.1541   -2.4291 C   0  0  0  0  0  0  0  0  0  0  0  0
   10.8413   12.8413   -0.1019 C   0  0  0  0  0  0  0  0  0  0  0  0
   11.2576   13.8673   -0.7442 O   0  0  0  0  0  0  0  0  0  0  0  0
   11.6004   12.4302    0.9982 N   0  0  0  0  0  0  0  0  0  0  0  0
   12.8270   13.1006    1.4774 C   0  0  1  0  0  0  0  0  0  0  0  0
   12.5761   13.2905    2.9654 C   0  0  0  0  0  0  0  0  0  0  0  0
   11.3603   14.0709    3.3255 C   0  0  0  0  0  0  0  0  0  0  0  0
   11.3500   14.0654    4.8591 C   0  0  0  0  0  0  0  0  0  0  0  0
   10.1606   14.7306    5.4589 C   0  0  0  0  0  0  0  0  0  0  0  0
    8.9127   14.0645    5.0827 N   0  0  0  0  0  0  0  0  0  0  0  0
   13.8512   11.9872    1.4634 C   0  0  0  0  0  0  0  0  0  0  0  0
   13.4646   10.9110    0.9487 O   0  0  0  0  0  0  0  0  0  0  0  0
   15.1629   12.1657    2.0270 N   0  0  0  0  0  0  0  0  0  0  0  0
   15.9572   10.9277    1.9807 C   0  0  1  0  0  0  0  0  0  0  0  0
   17.3804   11.0272    2.0512 C   0  0  0  0  0  0  0  0  0  0  0  0
   18.1806   11.7110    1.0546 C   0  0  0  0  0  0  0  0  0  0  0  0
   18.1733   13.1058    0.6579 C   0  0  0  0  0  0  0  0  0  0  0  0
   17.0622   13.7828   -0.0392 C   0  0  0  0  0  0  0  0  0  0  0  0
   17.4587   15.2000   -0.2906 N   0  0  0  0  0  0  0  0  0  0  0  0
   15.4070   10.1489    3.2391 C   0  0  0  0  0  0  0  0  0  0  0  0
   15.4995    8.9163    3.2756 O   0  0  0  0  0  0  0  0  0  0  0  0
   14.8241   10.8939    4.2787 N   0  0  0  0  0  0  0  0  0  0  0  0
   14.2041   10.5290    5.4655 C   0  0  0  0  0  0  0  0  0  0  0  0
   14.8437    9.6213    6.4376 C   0  0  0  0  0  0  0  0  0  0  0  0
   15.9086    9.0090    6.2945 O   0  0  0  0  0  0  0  0  0  0  0  0
   14.1318    9.4617    7.6517 N   0  0  0  0  0  0  0  0  0  0  0  0
   14.4662    8.6190    8.7656 C   0  0  1  0  0  0  0  0  0  0  0  0
   15.8405    9.0835    9.3248 C   0  0  0  0  0  0  0  0  0  0  0  0
   16.1874    8.1975   10.4738 C   0  0  0  0  0  0  0  0  0  0  0  0
   16.2723    6.7347   10.1569 C   0  0  0  0  0  0  0  0  0  0  0  0
   17.2975    6.3735    9.1140 C   0  0  0  0  0  0  0  0  0  0  0  0
   17.2938    4.9213    8.8706 N   0  0  0  0  0  0  0  0  0  0  0  0
   13.4774    8.8943    9.8102 C   0  0  0  0  0  0  0  0  0  0  0  0
   12.8944   10.0420    9.7145 O   0  0  0  0  0  0  0  0  0  0  0  0
   13.0812    8.0895   10.8776 N   0  0  0  0  0  0  0  0  0  0  0  0
   12.0487    8.6867   11.7979 C   0  0  1  0  0  0  0  0  0  0  0  0
   10.7539    8.5051   11.1212 C   0  0  0  0  0  0  0  0  0  0  0  0
    9.4998    8.9798   11.6932 C   0  0  0  0  0  0  0  0  0  0  0  0
    8.8770    8.4142   12.9032 C   0  0  0  0  0  0  0  0  0  0  0  0
    8.3812    7.0117   12.8507 C   0  0  0  0  0  0  0  0  0  0  0  0
    9.3198    5.9842   12.5681 N   0  0  0  0  0  0  0  0  0  0  0  0
   12.2568    8.1661   13.1128 C   0  0  0  0  0  0  0  0  0  0  0  0
   12.8310    7.0226   13.2295 O   0  0  0  0  0  0  0  0  0  0  0  0
   11.9160    8.7521   14.3292 O   0  0  0  0  0  0  0  0  0  0  0  0
    8.1609   20.2737    6.4471 C   0  0  1  0  0  0  0  0  0  0  0  0
    7.4578   20.3802    7.8270 C   0  0  0  0  0  0  0  0  0  0  0  0
    9.5617   20.8199    6.7696 C   0  0  0  0  0  0  0  0  0  0  0  0
   10.4790   20.7951    5.6022 C   0  0  0  0  0  0  0  0  0  0  0  0
  1  2  1  0
  2  3  1  0
  3  4  1  1
  3  5  1  0
  5  6  1  6
  6  7  1  0
  7  8  2  0
  7  9  1  0
  9 10  1  1
 10 11  1  0
 11 12  2  0
 12 13  1  0
 13 14  2  0
 14 15  1  0
 15 16  2  0
  9 17  1  0
 17 18  1  0
 18 19  2  0
 18 20  1  0
 20 21  1  6
 20 22  1  0
  5 23  1  0
 23 24  2  0
 23 25  1  0
 26 25  1  6
 26 27  1  0
 27 28  2  0
 27 29  1  0
 29 30  1  0
 30 31  1  6
 31 32  1  0
 32 33  2  0
 33 34  1  0
 34 35  1  0
 35 36  2  0
 36 37  1  0
 37 38  2  0
 38 39  1  0
 39 40  2  0
 30 41  1  0
 41 42  2  0
 41 43  1  0
 43 44  1  0
 44 45  1  1
 45 46  1  0
 46 47  1  0
 46 48  1  0
 44 49  1  0
 49 50  2  0
 49 51  1  0
 51 52  1  0
 52 53  1  6
 52 54  1  0
 54 55  2  0
 54 56  1  0
 56 57  1  0
 57 58  1  1
 58 59  1  0
 59 60  1  0
 60 61  1  0
 61 62  1  0
 62 63  1  0
 62 64  2  0
 57 65  1  0
 65 66  2  0
 65 67  1  0
 67 68  1  0
 68 69  1  1
 69 70  1  0
 70 71  1  0
 71 72  1  0
 72 73  1  0
 73 74  1  0
 73 75  2  0
 68 76  1  0
 76 77  2  0
 76 78  1  0
 78 79  1  0
 79 80  1  1
 80 81  1  0
 81 82  1  0
 81 83  1  0
 79 84  1  0
 84 85  2  0
 84 86  1  0
 86 87  1  0
 87 88  1  1
 88 89  1  0
 89 90  1  0
 90 91  1  0
 91 92  1  0
 87 93  1  0
 93 94  2  0
 93 95  1  0
 95 96  1  0
 96 97  1  1
 97 98  1  0
 98 99  1  0
 99100  1  0
100101  1  0
 96102  1  0
102103  2  0
102104  1  0
104105  1  0
105106  1  0
106107  2  0
106108  1  0
108109  1  0
109110  1  1
110111  1  0
111112  1  0
112113  1  0
113114  1  0
109115  1  0
115116  2  0
115117  1  0
117118  1  0
118119  1  6
119120  1  0
120121  1  0
121122  1  0
122123  1  0
118124  1  0
124125  2  0
124126  1  0
 26127  1  0
127128  1  1
127129  1  0
129130  1  0
 16 11  1  0
 40 32  1  0
 40 35  1  0
M  CHG  8  22   1  64   1  75   1  92   1 101   1 114   1 123   1 126  -1
M  END
>  <shape_align_shape_tanimoto>  (3) 
0.2828929076323291

>  <shape_align_color_tanimoto>  (3) 
0.024621855091142932

>  <metric>  (3) 
combo

>  <metric_score>  (3) 
0.154

>  <template_pid>  (3) 
2LGF

>  <template_shape_score>  (3) 
0.283

>  <template_color_score>  (3) 
0.025

>  <template_combo_score>  (3) 
0.154

$$$$
