5FPK_shape_pose
     RDKit          3D

 32 32  0  0  0  0  0  0  0  0999 V2000
   -1.3465    9.4018    9.5972 C   0  0  0  0  0  0  0  0  0  0  0  0
   -0.1837    8.8422   10.3594 C   0  0  0  0  0  0  0  0  0  0  0  0
    0.7561    9.6541   10.6468 O   0  0  0  0  0  0  0  0  0  0  0  0
   -0.0965    7.4978   10.7504 N   0  0  0  0  0  0  0  0  0  0  0  0
    1.0193    6.9244   11.4894 C   0  0  1  0  0  0  0  0  0  0  0  0
    0.5143    6.2940   12.7390 C   0  0  0  0  0  0  0  0  0  0  0  0
    1.5788    5.6722   13.5816 C   0  0  0  0  0  0  0  0  0  0  0  0
    2.2616    6.4375   14.5161 C   0  0  0  0  0  0  0  0  0  0  0  0
    3.2601    5.9112   15.3246 C   0  0  0  0  0  0  0  0  0  0  0  0
    3.5957    4.5701   15.2046 C   0  0  0  0  0  0  0  0  0  0  0  0
    2.9144    3.7958   14.2705 C   0  0  0  0  0  0  0  0  0  0  0  0
    1.9163    4.3242   13.4616 C   0  0  0  0  0  0  0  0  0  0  0  0
    1.6644    5.9608   10.5599 C   0  0  0  0  0  0  0  0  0  0  0  0
    2.6317    5.2378   10.9363 O   0  0  0  0  0  0  0  0  0  0  0  0
    1.2517    5.7893    9.2089 N   0  0  0  0  0  0  0  0  0  0  0  0
    1.8988    4.8367    8.3097 C   0  0  1  0  0  0  0  0  0  0  0  0
    1.0226    4.2174    7.3028 C   0  0  0  0  0  0  0  0  0  0  0  0
    2.9749    5.6737    7.6541 C   0  0  0  0  0  0  0  0  0  0  0  0
    3.0423    6.8701    8.0701 O   0  0  0  0  0  0  0  0  0  0  0  0
    3.8501    5.1925    6.6625 N   0  0  0  0  0  0  0  0  0  0  0  0
    4.8438    6.1100    6.1570 C   0  0  2  0  0  0  0  0  0  0  0  0
    4.5952    6.5413    4.7461 C   0  0  0  0  0  0  0  0  0  0  0  0
    3.6009    6.1322    4.0842 O   0  0  0  0  0  0  0  0  0  0  0  0
    5.5583    7.4461    4.2040 N   0  0  0  0  0  0  0  0  0  0  0  0
    5.4966    7.9823    2.8692 C   0  0  1  0  0  0  0  0  0  0  0  0
    5.5371    9.5036    2.8848 C   0  0  0  0  0  0  0  0  0  0  0  0
    6.6687    7.5161    2.0877 C   0  0  0  0  0  0  0  0  0  0  0  0
    7.6596    6.6535    2.6544 N   0  0  0  0  0  0  0  0  0  0  0  0
    6.8575    7.8512    0.8736 O   0  0  0  0  0  0  0  0  0  0  0  0
    6.2062    5.4801    6.2992 C   0  0  1  0  0  0  0  0  0  0  0  0
    6.4429    5.0868    7.7622 C   0  0  0  0  0  0  0  0  0  0  0  0
    6.3196    4.2998    5.5830 O   0  0  0  0  0  0  0  0  0  0  0  0
  1  2  1  0
  2  3  2  0
  2  4  1  0
  4  5  1  0
  5  6  1  1
  6  7  1  0
  7  8  2  0
  8  9  1  0
  9 10  2  0
 10 11  1  0
 11 12  2  0
  5 13  1  0
 13 14  2  0
 13 15  1  0
 15 16  1  0
 16 17  1  6
 16 18  1  0
 18 19  2  0
 18 20  1  0
 21 20  1  6
 21 22  1  0
 22 23  2  0
 22 24  1  0
 24 25  1  0
 25 26  1  1
 25 27  1  0
 27 28  1  0
 27 29  2  0
 21 30  1  0
 30 31  1  1
 30 32  1  0
 12  7  1  0
M  END
>  <shape_align_shape_tanimoto>  (1) 
0.59479980667652699

>  <shape_align_color_tanimoto>  (1) 
0.050653355819843607

>  <metric>  (1) 
shape

>  <metric_score>  (1) 
0.595

>  <template_pid>  (1) 
5FPK

>  <template_shape_score>  (1) 
0.595

>  <template_color_score>  (1) 
0.051

>  <template_combo_score>  (1) 
0.323

$$$$
5FPK_color_pose
     RDKit          3D

 32 32  0  0  0  0  0  0  0  0999 V2000
    3.0348    3.1245   15.8279 C   0  0  0  0  0  0  0  0  0  0  0  0
    2.2126    3.5601   14.6612 C   0  0  0  0  0  0  0  0  0  0  0  0
    1.1347    2.9346   14.4316 O   0  0  0  0  0  0  0  0  0  0  0  0
    2.6002    4.6240   13.8325 N   0  0  0  0  0  0  0  0  0  0  0  0
    1.7792    5.0557   12.6713 C   0  0  1  0  0  0  0  0  0  0  0  0
    1.4328    6.4655   12.9645 C   0  0  0  0  0  0  0  0  0  0  0  0
    0.6153    7.1844   11.9988 C   0  0  0  0  0  0  0  0  0  0  0  0
    1.0861    7.9673   10.9665 C   0  0  0  0  0  0  0  0  0  0  0  0
    0.2516    8.6189   10.0835 C   0  0  0  0  0  0  0  0  0  0  0  0
   -1.1195    8.5120   10.1991 C   0  0  0  0  0  0  0  0  0  0  0  0
   -1.6260    7.7263   11.2346 C   0  0  0  0  0  0  0  0  0  0  0  0
   -0.7687    7.0854   12.1040 C   0  0  0  0  0  0  0  0  0  0  0  0
    2.6110    4.7853   11.5050 C   0  0  0  0  0  0  0  0  0  0  0  0
    3.7931    4.3366   11.7371 O   0  0  0  0  0  0  0  0  0  0  0  0
    2.2716    4.9547   10.1559 N   0  0  0  0  0  0  0  0  0  0  0  0
    3.2198    4.6294    9.1083 C   0  0  1  0  0  0  0  0  0  0  0  0
    2.7135    3.4748    8.2587 C   0  0  0  0  0  0  0  0  0  0  0  0
    3.4391    5.8426    8.2916 C   0  0  0  0  0  0  0  0  0  0  0  0
    2.8858    6.9476    8.4867 O   0  0  0  0  0  0  0  0  0  0  0  0
    4.3510    5.7386    7.2012 N   0  0  0  0  0  0  0  0  0  0  0  0
    4.6674    6.8288    6.3195 C   0  0  2  0  0  0  0  0  0  0  0  0
    4.3489    6.4964    4.8970 C   0  0  0  0  0  0  0  0  0  0  0  0
    3.8615    5.3728    4.6030 O   0  0  0  0  0  0  0  0  0  0  0  0
    4.6181    7.4899    3.9177 N   0  0  0  0  0  0  0  0  0  0  0  0
    4.3412    7.2548    2.5215 C   0  0  1  0  0  0  0  0  0  0  0  0
    3.4023    8.2292    1.9000 C   0  0  0  0  0  0  0  0  0  0  0  0
    5.6337    7.2225    1.7904 C   0  0  0  0  0  0  0  0  0  0  0  0
    5.6090    7.0075    0.4050 N   0  0  0  0  0  0  0  0  0  0  0  0
    6.6799    7.3929    2.4740 O   0  0  0  0  0  0  0  0  0  0  0  0
    6.1370    7.1909    6.3737 C   0  0  1  0  0  0  0  0  0  0  0  0
    6.5341    7.5776    7.7850 C   0  0  0  0  0  0  0  0  0  0  0  0
    6.9293    6.1071    6.0012 O   0  0  0  0  0  0  0  0  0  0  0  0
  1  2  1  0
  2  3  2  0
  2  4  1  0
  4  5  1  0
  5  6  1  1
  6  7  1  0
  7  8  2  0
  8  9  1  0
  9 10  2  0
 10 11  1  0
 11 12  2  0
  5 13  1  0
 13 14  2  0
 13 15  1  0
 15 16  1  0
 16 17  1  6
 16 18  1  0
 18 19  2  0
 18 20  1  0
 21 20  1  1
 21 22  1  0
 22 23  2  0
 22 24  1  0
 24 25  1  0
 25 26  1  6
 25 27  1  0
 27 28  1  0
 27 29  2  0
 21 30  1  0
 30 31  1  1
 30 32  1  0
 12  7  1  0
M  END
>  <shape_align_shape_tanimoto>  (2) 
0.49447043554482301

>  <shape_align_color_tanimoto>  (2) 
0.10586955808634499

>  <metric>  (2) 
color

>  <metric_score>  (2) 
0.106

>  <template_pid>  (2) 
5FPK

>  <template_shape_score>  (2) 
0.494

>  <template_color_score>  (2) 
0.106

>  <template_combo_score>  (2) 
0.300

$$$$
5FPK_combo_pose
     RDKit          3D

 32 32  0  0  0  0  0  0  0  0999 V2000
    0.3767    8.8339   10.6206 C   0  0  0  0  0  0  0  0  0  0  0  0
    0.8377    7.4172   10.3825 C   0  0  0  0  0  0  0  0  0  0  0  0
   -0.0763    6.5893   10.1565 O   0  0  0  0  0  0  0  0  0  0  0  0
    2.2134    7.1099   10.4245 N   0  0  0  0  0  0  0  0  0  0  0  0
    2.8082    5.8314   10.2330 C   0  0  1  0  0  0  0  0  0  0  0  0
    2.0070    4.7667   11.0104 C   0  0  0  0  0  0  0  0  0  0  0  0
    1.9955    4.9918   12.4547 C   0  0  0  0  0  0  0  0  0  0  0  0
    3.0929    4.4954   13.1771 C   0  0  0  0  0  0  0  0  0  0  0  0
    3.1883    4.6288   14.5434 C   0  0  0  0  0  0  0  0  0  0  0  0
    2.2044    5.2607   15.2747 C   0  0  0  0  0  0  0  0  0  0  0  0
    1.1264    5.7504   14.5834 C   0  0  0  0  0  0  0  0  0  0  0  0
    1.0317    5.6133   13.1949 C   0  0  0  0  0  0  0  0  0  0  0  0
    3.0325    5.4236    8.8542 C   0  0  0  0  0  0  0  0  0  0  0  0
    3.5653    4.2819    8.6527 O   0  0  0  0  0  0  0  0  0  0  0  0
    2.7126    6.1808    7.7019 N   0  0  0  0  0  0  0  0  0  0  0  0
    2.9687    5.7017    6.3604 C   0  0  1  0  0  0  0  0  0  0  0  0
    1.7161    5.4882    5.5625 C   0  0  0  0  0  0  0  0  0  0  0  0
    3.9501    6.5751    5.6478 C   0  0  0  0  0  0  0  0  0  0  0  0
    4.4026    7.5766    6.2979 O   0  0  0  0  0  0  0  0  0  0  0  0
    4.3250    6.2695    4.3311 N   0  0  0  0  0  0  0  0  0  0  0  0
    5.2757    7.1131    3.6376 C   0  0  2  0  0  0  0  0  0  0  0  0
    4.7744    7.7031    2.4007 C   0  0  0  0  0  0  0  0  0  0  0  0
    5.5477    8.4607    1.7264 O   0  0  0  0  0  0  0  0  0  0  0  0
    3.4588    7.4674    1.9169 N   0  0  0  0  0  0  0  0  0  0  0  0
    3.0459    8.0954    0.6783 C   0  0  1  0  0  0  0  0  0  0  0  0
    2.7513    7.0330   -0.3798 C   0  0  0  0  0  0  0  0  0  0  0  0
    1.8641    8.9548    0.8065 C   0  0  0  0  0  0  0  0  0  0  0  0
    1.1667    9.1740    2.0098 N   0  0  0  0  0  0  0  0  0  0  0  0
    1.4443    9.5372   -0.2332 O   0  0  0  0  0  0  0  0  0  0  0  0
    6.5268    6.2893    3.4518 C   0  0  1  0  0  0  0  0  0  0  0  0
    6.2870    4.9425    2.8542 C   0  0  0  0  0  0  0  0  0  0  0  0
    7.5225    7.0210    2.7825 O   0  0  0  0  0  0  0  0  0  0  0  0
  1  2  1  0
  2  3  2  0
  2  4  1  0
  4  5  1  0
  5  6  1  6
  6  7  1  0
  7  8  2  0
  8  9  1  0
  9 10  2  0
 10 11  1  0
 11 12  2  0
  5 13  1  0
 13 14  2  0
 13 15  1  0
 15 16  1  0
 16 17  1  6
 16 18  1  0
 18 19  2  0
 18 20  1  0
 21 20  1  6
 21 22  1  0
 22 23  2  0
 22 24  1  0
 24 25  1  0
 25 26  1  6
 25 27  1  0
 27 28  1  0
 27 29  2  0
 21 30  1  0
 30 31  1  6
 30 32  1  0
 12  7  1  0
M  END
>  <shape_align_shape_tanimoto>  (3) 
0.56671774693680821

>  <shape_align_color_tanimoto>  (3) 
0.10339844431103877

>  <metric>  (3) 
combo

>  <metric_score>  (3) 
0.335

>  <template_pid>  (3) 
5FPK

>  <template_shape_score>  (3) 
0.567

>  <template_color_score>  (3) 
0.103

>  <template_combo_score>  (3) 
0.335

$$$$
