3C4E_shape_pose
     RDKit          3D

 16 18  0  0  0  0  0  0  0  0999 V2000
   21.0354   29.3777    0.2654 C   0  0  0  0  0  0  0  0  0  0  0  0
   20.8321   29.9637    1.4973 C   0  0  0  0  0  0  0  0  0  0  0  0
   21.2863   31.2369    1.7625 C   0  0  0  0  0  0  0  0  0  0  0  0
   21.9715   31.9967    0.8057 C   0  0  0  0  0  0  0  0  0  0  0  0
   22.4206   33.2803    1.1697 N   0  0  0  0  0  0  0  0  0  0  0  0
   22.5092   34.4163    0.3409 C   0  0  0  0  0  0  0  0  0  0  0  0
   22.1613   34.6173   -0.9739 C   0  0  0  0  0  0  0  0  0  0  0  0
   22.4501   35.8925   -1.3485 N   0  0  0  0  0  0  0  0  0  0  0  0
   22.9756   36.5113   -0.2983 C   0  0  0  0  0  0  0  0  0  0  0  0
   23.4113   37.8005   -0.2168 N   0  0  0  0  0  0  0  0  0  0  0  0
   23.9143   38.2313    0.9530 C   0  0  0  0  0  0  0  0  0  0  0  0
   23.9951   37.4033    2.0535 C   0  0  0  0  0  0  0  0  0  0  0  0
   23.5514   36.1003    1.9603 C   0  0  0  0  0  0  0  0  0  0  0  0
   23.0272   35.6434    0.7492 C   0  0  0  0  0  0  0  0  0  0  0  0
   22.1628   31.3944   -0.4108 C   0  0  0  0  0  0  0  0  0  0  0  0
   21.7076   30.1039   -0.6946 C   0  0  0  0  0  0  0  0  0  0  0  0
  1  2  2  0
  2  3  1  0
  3  4  2  0
  4  5  1  0
  5  6  1  0
  6  7  2  0
  7  8  1  0
  8  9  1  0
  9 10  2  0
 10 11  1  0
 11 12  2  0
 12 13  1  0
 13 14  2  0
  4 15  1  0
 15 16  2  0
 16  1  1  0
 14  6  1  0
 14  9  1  0
M  END
>  <shape_align_shape_tanimoto>  (1) 
0.92675721003964151

>  <shape_align_color_tanimoto>  (1) 
0.27224366744725415

>  <metric>  (1) 
shape

>  <metric_score>  (1) 
0.927

>  <template_pid>  (1) 
3C4E

>  <template_shape_score>  (1) 
0.927

>  <template_color_score>  (1) 
0.272

>  <template_combo_score>  (1) 
0.600

$$$$
3C4E_color_pose
     RDKit          3D

 16 18  0  0  0  0  0  0  0  0999 V2000
   21.0580   29.3543    0.2609 C   0  0  0  0  0  0  0  0  0  0  0  0
   21.9847   29.5972    1.2519 C   0  0  0  0  0  0  0  0  0  0  0  0
   22.4091   30.8790    1.5325 C   0  0  0  0  0  0  0  0  0  0  0  0
   21.9214   31.9889    0.8278 C   0  0  0  0  0  0  0  0  0  0  0  0
   22.3851   33.2690    1.1887 N   0  0  0  0  0  0  0  0  0  0  0  0
   22.6037   34.3601    0.3228 C   0  0  0  0  0  0  0  0  0  0  0  0
   22.4890   34.4860   -1.0388 C   0  0  0  0  0  0  0  0  0  0  0  0
   22.7935   35.7496   -1.4308 N   0  0  0  0  0  0  0  0  0  0  0  0
   23.1101   36.4630   -0.3371 C   0  0  0  0  0  0  0  0  0  0  0  0
   23.4782   37.7557   -0.2255 N   0  0  0  0  0  0  0  0  0  0  0  0
   23.7549   38.2741    0.9923 C   0  0  0  0  0  0  0  0  0  0  0  0
   23.6628   37.4819    2.1375 C   0  0  0  0  0  0  0  0  0  0  0  0
   23.2845   36.1624    2.0001 C   0  0  0  0  0  0  0  0  0  0  0  0
   23.0008   35.6304    0.7533 C   0  0  0  0  0  0  0  0  0  0  0  0
   21.0013   31.7147   -0.1501 C   0  0  0  0  0  0  0  0  0  0  0  0
   20.5641   30.4267   -0.4445 C   0  0  0  0  0  0  0  0  0  0  0  0
  1  2  2  0
  2  3  1  0
  3  4  2  0
  4  5  1  0
  5  6  1  0
  6  7  2  0
  7  8  1  0
  8  9  1  0
  9 10  2  0
 10 11  1  0
 11 12  2  0
 12 13  1  0
 13 14  2  0
  4 15  1  0
 15 16  2  0
 16  1  1  0
 14  6  1  0
 14  9  1  0
M  END
>  <shape_align_shape_tanimoto>  (2) 
0.879029962474839

>  <shape_align_color_tanimoto>  (2) 
0.27353530223529959

>  <metric>  (2) 
color

>  <metric_score>  (2) 
0.274

>  <template_pid>  (2) 
3C4E

>  <template_shape_score>  (2) 
0.879

>  <template_color_score>  (2) 
0.274

>  <template_combo_score>  (2) 
0.576

$$$$
3C4E_combo_pose
     RDKit          3D

 16 18  0  0  0  0  0  0  0  0999 V2000
   21.0354   29.3777    0.2654 C   0  0  0  0  0  0  0  0  0  0  0  0
   20.8321   29.9637    1.4973 C   0  0  0  0  0  0  0  0  0  0  0  0
   21.2863   31.2369    1.7625 C   0  0  0  0  0  0  0  0  0  0  0  0
   21.9715   31.9967    0.8057 C   0  0  0  0  0  0  0  0  0  0  0  0
   22.4206   33.2803    1.1697 N   0  0  0  0  0  0  0  0  0  0  0  0
   22.5092   34.4163    0.3409 C   0  0  0  0  0  0  0  0  0  0  0  0
   22.1613   34.6173   -0.9739 C   0  0  0  0  0  0  0  0  0  0  0  0
   22.4501   35.8925   -1.3485 N   0  0  0  0  0  0  0  0  0  0  0  0
   22.9756   36.5113   -0.2983 C   0  0  0  0  0  0  0  0  0  0  0  0
   23.4113   37.8005   -0.2168 N   0  0  0  0  0  0  0  0  0  0  0  0
   23.9143   38.2313    0.9530 C   0  0  0  0  0  0  0  0  0  0  0  0
   23.9951   37.4033    2.0535 C   0  0  0  0  0  0  0  0  0  0  0  0
   23.5514   36.1003    1.9603 C   0  0  0  0  0  0  0  0  0  0  0  0
   23.0272   35.6434    0.7492 C   0  0  0  0  0  0  0  0  0  0  0  0
   22.1628   31.3944   -0.4108 C   0  0  0  0  0  0  0  0  0  0  0  0
   21.7076   30.1039   -0.6946 C   0  0  0  0  0  0  0  0  0  0  0  0
  1  2  2  0
  2  3  1  0
  3  4  2  0
  4  5  1  0
  5  6  1  0
  6  7  2  0
  7  8  1  0
  8  9  1  0
  9 10  2  0
 10 11  1  0
 11 12  2  0
 12 13  1  0
 13 14  2  0
  4 15  1  0
 15 16  2  0
 16  1  1  0
 14  6  1  0
 14  9  1  0
M  END
>  <shape_align_shape_tanimoto>  (3) 
0.92675721003964151

>  <shape_align_color_tanimoto>  (3) 
0.27224366744725415

>  <metric>  (3) 
combo

>  <metric_score>  (3) 
0.600

>  <template_pid>  (3) 
3C4E

>  <template_shape_score>  (3) 
0.927

>  <template_color_score>  (3) 
0.272

>  <template_combo_score>  (3) 
0.600

$$$$
