4DO3_shape_pose
     RDKit          3D

 19 21  0  0  0  0  0  0  0  0999 V2000
   12.2145   13.7436    1.6570 C   0  0  0  0  0  0  0  0  0  0  0  0
   11.9624   12.4382    2.4247 C   0  0  2  0  0  0  0  0  0  0  0  0
   10.7370   12.6902    3.2204 C   0  0  0  0  0  0  0  0  0  0  0  0
    9.6577   12.8076    2.5776 O   0  0  0  0  0  0  0  0  0  0  0  0
   10.7243   12.8001    4.6028 O   0  0  0  0  0  0  0  0  0  0  0  0
   13.1242   12.0494    3.2232 C   0  0  0  0  0  0  0  0  0  0  0  0
   14.3808   12.4580    2.7895 C   0  0  0  0  0  0  0  0  0  0  0  0
   15.5360   12.1264    3.4933 C   0  0  0  0  0  0  0  0  0  0  0  0
   15.4593   11.3725    4.6560 C   0  0  0  0  0  0  0  0  0  0  0  0
   14.2184   10.9604    5.0976 C   0  0  0  0  0  0  0  0  0  0  0  0
   13.0890   11.3053    4.3772 C   0  0  0  0  0  0  0  0  0  0  0  0
   14.3536   10.2405    6.2416 N   0  0  0  0  0  0  0  0  0  0  0  0
   15.6772   10.1918    6.5318 C   0  0  0  0  0  0  0  0  0  0  0  0
   16.3657    9.5951    7.5733 C   0  0  0  0  0  0  0  0  0  0  0  0
   17.7579    9.6924    7.6469 C   0  0  0  0  0  0  0  0  0  0  0  0
   18.4345   10.4029    6.6489 C   0  0  0  0  0  0  0  0  0  0  0  0
   20.1764   10.4976    6.7833 Cl  0  0  0  0  0  0  0  0  0  0  0  0
   17.7529   11.0015    5.6056 C   0  0  0  0  0  0  0  0  0  0  0  0
   16.3779   10.8842    5.5659 C   0  0  0  0  0  0  0  0  0  0  0  0
  2  1  1  1
  2  3  1  0
  3  4  2  0
  3  5  1  0
  2  6  1  0
  6  7  2  0
  7  8  1  0
  8  9  2  0
  9 10  1  0
 10 11  2  0
 10 12  1  0
 12 13  1  0
 13 14  2  0
 14 15  1  0
 15 16  2  0
 16 17  1  0
 16 18  1  0
 18 19  2  0
 11  6  1  0
 19 13  1  0
 19  9  1  0
M  CHG  1   5  -1
M  END
>  <shape_align_shape_tanimoto>  (1) 
0.7599583441771609

>  <shape_align_color_tanimoto>  (1) 
0.15172832905312902

>  <metric>  (1) 
shape

>  <metric_score>  (1) 
0.760

>  <template_pid>  (1) 
4DO3

>  <template_shape_score>  (1) 
0.760

>  <template_color_score>  (1) 
0.152

>  <template_combo_score>  (1) 
0.456

$$$$
4DO3_color_pose
     RDKit          3D

 19 21  0  0  0  0  0  0  0  0999 V2000
   12.2145   13.7436    1.6570 C   0  0  0  0  0  0  0  0  0  0  0  0
   11.9624   12.4382    2.4247 C   0  0  2  0  0  0  0  0  0  0  0  0
   10.7370   12.6902    3.2204 C   0  0  0  0  0  0  0  0  0  0  0  0
    9.6577   12.8076    2.5776 O   0  0  0  0  0  0  0  0  0  0  0  0
   10.7243   12.8001    4.6028 O   0  0  0  0  0  0  0  0  0  0  0  0
   13.1242   12.0494    3.2232 C   0  0  0  0  0  0  0  0  0  0  0  0
   14.3808   12.4580    2.7895 C   0  0  0  0  0  0  0  0  0  0  0  0
   15.5360   12.1264    3.4933 C   0  0  0  0  0  0  0  0  0  0  0  0
   15.4593   11.3725    4.6560 C   0  0  0  0  0  0  0  0  0  0  0  0
   14.2184   10.9604    5.0976 C   0  0  0  0  0  0  0  0  0  0  0  0
   13.0890   11.3053    4.3772 C   0  0  0  0  0  0  0  0  0  0  0  0
   14.3536   10.2405    6.2416 N   0  0  0  0  0  0  0  0  0  0  0  0
   15.6772   10.1918    6.5318 C   0  0  0  0  0  0  0  0  0  0  0  0
   16.3657    9.5951    7.5733 C   0  0  0  0  0  0  0  0  0  0  0  0
   17.7579    9.6924    7.6469 C   0  0  0  0  0  0  0  0  0  0  0  0
   18.4345   10.4029    6.6489 C   0  0  0  0  0  0  0  0  0  0  0  0
   20.1764   10.4976    6.7833 Cl  0  0  0  0  0  0  0  0  0  0  0  0
   17.7529   11.0015    5.6056 C   0  0  0  0  0  0  0  0  0  0  0  0
   16.3779   10.8842    5.5659 C   0  0  0  0  0  0  0  0  0  0  0  0
  2  1  1  1
  2  3  1  0
  3  4  2  0
  3  5  1  0
  2  6  1  0
  6  7  2  0
  7  8  1  0
  8  9  2  0
  9 10  1  0
 10 11  2  0
 10 12  1  0
 12 13  1  0
 13 14  2  0
 14 15  1  0
 15 16  2  0
 16 17  1  0
 16 18  1  0
 18 19  2  0
 11  6  1  0
 19 13  1  0
 19  9  1  0
M  CHG  1   5  -1
M  END
>  <shape_align_shape_tanimoto>  (2) 
0.7599583441771609

>  <shape_align_color_tanimoto>  (2) 
0.15172832905312902

>  <metric>  (2) 
color

>  <metric_score>  (2) 
0.152

>  <template_pid>  (2) 
4DO3

>  <template_shape_score>  (2) 
0.760

>  <template_color_score>  (2) 
0.152

>  <template_combo_score>  (2) 
0.456

$$$$
4DO3_combo_pose
     RDKit          3D

 19 21  0  0  0  0  0  0  0  0999 V2000
   12.2145   13.7436    1.6570 C   0  0  0  0  0  0  0  0  0  0  0  0
   11.9624   12.4382    2.4247 C   0  0  2  0  0  0  0  0  0  0  0  0
   10.7370   12.6902    3.2204 C   0  0  0  0  0  0  0  0  0  0  0  0
    9.6577   12.8076    2.5776 O   0  0  0  0  0  0  0  0  0  0  0  0
   10.7243   12.8001    4.6028 O   0  0  0  0  0  0  0  0  0  0  0  0
   13.1242   12.0494    3.2232 C   0  0  0  0  0  0  0  0  0  0  0  0
   14.3808   12.4580    2.7895 C   0  0  0  0  0  0  0  0  0  0  0  0
   15.5360   12.1264    3.4933 C   0  0  0  0  0  0  0  0  0  0  0  0
   15.4593   11.3725    4.6560 C   0  0  0  0  0  0  0  0  0  0  0  0
   14.2184   10.9604    5.0976 C   0  0  0  0  0  0  0  0  0  0  0  0
   13.0890   11.3053    4.3772 C   0  0  0  0  0  0  0  0  0  0  0  0
   14.3536   10.2405    6.2416 N   0  0  0  0  0  0  0  0  0  0  0  0
   15.6772   10.1918    6.5318 C   0  0  0  0  0  0  0  0  0  0  0  0
   16.3657    9.5951    7.5733 C   0  0  0  0  0  0  0  0  0  0  0  0
   17.7579    9.6924    7.6469 C   0  0  0  0  0  0  0  0  0  0  0  0
   18.4345   10.4029    6.6489 C   0  0  0  0  0  0  0  0  0  0  0  0
   20.1764   10.4976    6.7833 Cl  0  0  0  0  0  0  0  0  0  0  0  0
   17.7529   11.0015    5.6056 C   0  0  0  0  0  0  0  0  0  0  0  0
   16.3779   10.8842    5.5659 C   0  0  0  0  0  0  0  0  0  0  0  0
  2  1  1  1
  2  3  1  0
  3  4  2  0
  3  5  1  0
  2  6  1  0
  6  7  2  0
  7  8  1  0
  8  9  2  0
  9 10  1  0
 10 11  2  0
 10 12  1  0
 12 13  1  0
 13 14  2  0
 14 15  1  0
 15 16  2  0
 16 17  1  0
 16 18  1  0
 18 19  2  0
 11  6  1  0
 19 13  1  0
 19  9  1  0
M  CHG  1   5  -1
M  END
>  <shape_align_shape_tanimoto>  (3) 
0.7599583441771609

>  <shape_align_color_tanimoto>  (3) 
0.15172832905312902

>  <metric>  (3) 
combo

>  <metric_score>  (3) 
0.456

>  <template_pid>  (3) 
4DO3

>  <template_shape_score>  (3) 
0.760

>  <template_color_score>  (3) 
0.152

>  <template_combo_score>  (3) 
0.456

$$$$
