2GBG_shape_pose
     RDKit          3D

 19 20  0  0  0  0  0  0  0  0999 V2000
   15.8921   28.0515   53.4598 C   0  0  0  0  0  0  0  0  0  0  0  0
   16.3168   29.4349   53.1877 C   0  0  0  0  0  0  0  0  0  0  0  0
   16.6470   30.5731   52.9746 C   0  0  0  0  0  0  0  0  0  0  0  0
   17.0637   31.9304   52.7068 C   0  0  1  0  0  0  0  0  0  0  0  0
   15.9244   32.6700   52.0390 C   0  0  0  0  0  0  0  0  0  0  0  0
   14.9901   32.9283   53.2016 C   0  0  0  0  0  0  0  0  0  0  0  0
   15.8677   32.8508   54.4357 C   0  0  1  0  0  0  0  0  0  0  0  0
   15.6051   31.5573   55.1741 C   0  0  0  0  0  0  0  0  0  0  0  0
   16.4827   31.1297   56.0137 N   0  0  0  0  0  0  0  0  0  0  0  0
   17.2155   32.7329   53.9287 N   0  0  0  0  0  0  0  0  0  0  0  0
   18.4539   33.2233   54.3903 C   0  0  0  0  0  0  0  0  0  0  0  0
   19.5172   32.9389   53.7563 O   0  0  0  0  0  0  0  0  0  0  0  0
   18.6383   34.0715   55.5944 C   0  0  1  0  0  0  0  0  0  0  0  0
   20.0571   34.0239   55.9415 N   0  0  0  0  0  0  0  0  0  0  0  0
   18.2311   35.4787   55.2404 C   0  0  0  0  0  0  0  0  0  0  0  0
   19.0700   36.0402   54.1095 C   0  0  0  0  0  0  0  0  0  0  0  0
   18.7309   37.5229   54.2039 C   0  0  0  0  0  0  0  0  0  0  0  0
   18.9886   37.7443   55.6981 C   0  0  0  0  0  0  0  0  0  0  0  0
   18.4047   36.4739   56.3301 C   0  0  0  0  0  0  0  0  0  0  0  0
  1  2  1  0
  2  3  3  0
  4  3  1  1
  4  5  1  0
  5  6  1  0
  6  7  1  0
  7  8  1  6
  8  9  2  0
  7 10  1  0
 10 11  1  0
 11 12  2  0
 11 13  1  0
 13 14  1  6
 13 15  1  0
 15 16  1  0
 16 17  1  0
 17 18  1  0
 18 19  1  0
 10  4  1  0
 19 15  1  0
M  CHG  1  14   1
M  END
>  <shape_align_shape_tanimoto>  (1) 
0.56808913449817799

>  <shape_align_color_tanimoto>  (1) 
0.0030568196243168848

>  <metric>  (1) 
shape

>  <metric_score>  (1) 
0.568

>  <template_pid>  (1) 
2GBG

>  <template_shape_score>  (1) 
0.568

>  <template_color_score>  (1) 
0.003

>  <template_combo_score>  (1) 
0.286

$$$$
2GBG_color_pose
     RDKit          3D

 19 20  0  0  0  0  0  0  0  0999 V2000
   22.0793   32.6427   55.7772 C   0  0  0  0  0  0  0  0  0  0  0  0
   20.7217   33.2138   55.6786 C   0  0  0  0  0  0  0  0  0  0  0  0
   19.6195   33.6737   55.6178 C   0  0  0  0  0  0  0  0  0  0  0  0
   18.3019   34.1970   55.5492 C   0  0  1  0  0  0  0  0  0  0  0  0
   18.3518   35.5703   54.9706 C   0  0  0  0  0  0  0  0  0  0  0  0
   18.3118   35.2877   53.5259 C   0  0  0  0  0  0  0  0  0  0  0  0
   17.2581   34.2053   53.4435 C   0  0  1  0  0  0  0  0  0  0  0  0
   17.6135   33.5710   52.1713 C   0  0  0  0  0  0  0  0  0  0  0  0
   16.9426   33.8279   51.1086 N   0  0  0  0  0  0  0  0  0  0  0  0
   17.3845   33.4406   54.6489 N   0  0  0  0  0  0  0  0  0  0  0  0
   16.8081   32.2149   55.0709 C   0  0  0  0  0  0  0  0  0  0  0  0
   17.1660   31.7682   56.2509 O   0  0  0  0  0  0  0  0  0  0  0  0
   15.8667   31.3790   54.3716 C   0  0  1  0  0  0  0  0  0  0  0  0
   15.3214   31.7594   53.1136 N   0  0  0  0  0  0  0  0  0  0  0  0
   16.1769   29.8982   54.3761 C   0  0  0  0  0  0  0  0  0  0  0  0
   15.2180   29.0214   53.6622 C   0  0  0  0  0  0  0  0  0  0  0  0
   15.7696   28.7140   52.2869 C   0  0  0  0  0  0  0  0  0  0  0  0
   17.2369   29.0838   52.3360 C   0  0  0  0  0  0  0  0  0  0  0  0
   17.4693   29.5411   53.7189 C   0  0  0  0  0  0  0  0  0  0  0  0
  1  2  1  0
  2  3  3  0
  4  3  1  6
  4  5  1  0
  5  6  1  0
  6  7  1  0
  7  8  1  6
  8  9  2  0
  7 10  1  0
 10 11  1  0
 11 12  2  0
 11 13  1  0
 13 14  1  6
 13 15  1  0
 15 16  1  0
 16 17  1  0
 17 18  1  0
 18 19  1  0
 10  4  1  0
 19 15  1  0
M  CHG  1  14   1
M  END
>  <shape_align_shape_tanimoto>  (2) 
0.46456015386505728

>  <shape_align_color_tanimoto>  (2) 
0.11253932665740946

>  <metric>  (2) 
color

>  <metric_score>  (2) 
0.113

>  <template_pid>  (2) 
2GBG

>  <template_shape_score>  (2) 
0.465

>  <template_color_score>  (2) 
0.113

>  <template_combo_score>  (2) 
0.289

$$$$
2GBG_combo_pose
     RDKit          3D

 19 20  0  0  0  0  0  0  0  0999 V2000
   18.2115   37.7658   55.6329 C   0  0  0  0  0  0  0  0  0  0  0  0
   18.5031   36.4322   55.0574 C   0  0  0  0  0  0  0  0  0  0  0  0
   18.7398   35.3366   54.6067 C   0  0  0  0  0  0  0  0  0  0  0  0
   19.0359   34.0070   54.0720 C   0  0  1  0  0  0  0  0  0  0  0  0
   20.2121   33.3736   54.7841 C   0  0  0  0  0  0  0  0  0  0  0  0
   19.5556   33.2421   56.1719 C   0  0  0  0  0  0  0  0  0  0  0  0
   18.2244   32.5611   55.7789 C   0  0  1  0  0  0  0  0  0  0  0  0
   17.1643   32.9992   56.7307 C   0  0  0  0  0  0  0  0  0  0  0  0
   16.2976   33.8822   56.4873 N   0  0  0  0  0  0  0  0  0  0  0  0
   17.9827   33.0356   54.4242 N   0  0  0  0  0  0  0  0  0  0  0  0
   16.9543   32.7067   53.5090 C   0  0  0  0  0  0  0  0  0  0  0  0
   16.9074   33.2434   52.3395 O   0  0  0  0  0  0  0  0  0  0  0  0
   15.8575   31.7457   53.7843 C   0  0  1  0  0  0  0  0  0  0  0  0
   14.8958   31.7592   52.6910 N   0  0  0  0  0  0  0  0  0  0  0  0
   16.3294   30.3126   53.8910 C   0  0  0  0  0  0  0  0  0  0  0  0
   16.9997   29.8057   52.6467 C   0  0  0  0  0  0  0  0  0  0  0  0
   16.2590   28.5564   52.2002 C   0  0  0  0  0  0  0  0  0  0  0  0
   15.6103   28.1156   53.5137 C   0  0  0  0  0  0  0  0  0  0  0  0
   15.0529   29.4610   53.9731 C   0  0  0  0  0  0  0  0  0  0  0  0
  1  2  1  0
  2  3  3  0
  4  3  1  1
  4  5  1  0
  5  6  1  0
  6  7  1  0
  7  8  1  1
  8  9  2  0
  7 10  1  0
 10 11  1  0
 11 12  2  0
 11 13  1  0
 13 14  1  6
 13 15  1  0
 15 16  1  0
 16 17  1  0
 17 18  1  0
 18 19  1  0
 10  4  1  0
 19 15  1  0
M  CHG  1  14   1
M  END
>  <shape_align_shape_tanimoto>  (3) 
0.54540499514054919

>  <shape_align_color_tanimoto>  (3) 
0.032409661679235202

>  <metric>  (3) 
combo

>  <metric_score>  (3) 
0.289

>  <template_pid>  (3) 
2GBG

>  <template_shape_score>  (3) 
0.545

>  <template_color_score>  (3) 
0.032

>  <template_combo_score>  (3) 
0.289

$$$$
