3RQG_shape_pose
     RDKit          3D

 93 92  0  0  0  0  0  0  0  0999 V2000
  -13.2750  -10.5678   19.1596 C   0  0  0  0  0  0  0  0  0  0  0  0
  -11.6553   -9.7557   19.3034 S   0  0  0  0  0  0  0  0  0  0  0  0
  -11.5822   -8.2563   18.3131 C   0  0  0  0  0  0  0  0  0  0  0  0
  -10.2449   -7.5686   18.4323 C   0  0  0  0  0  0  0  0  0  0  0  0
   -9.0802   -8.4130   17.9822 C   0  0  2  0  0  0  0  0  0  0  0  0
   -7.8490   -7.6487   18.1747 N   0  0  0  0  0  0  0  0  0  0  0  0
   -6.8326   -8.3179   18.9281 C   0  0  0  0  0  0  0  0  0  0  0  0
   -7.0222   -9.4806   19.3386 O   0  0  0  0  0  0  0  0  0  0  0  0
   -5.5074   -7.6287   19.2528 C   0  0  2  0  0  0  0  0  0  0  0  0
   -4.8986   -7.2160   17.9866 C   0  0  0  0  0  0  0  0  0  0  0  0
   -3.5987   -6.5008   18.0111 C   0  0  0  0  0  0  0  0  0  0  0  0
   -2.5217   -7.3207   18.6270 C   0  0  0  0  0  0  0  0  0  0  0  0
   -3.6864   -5.1112   18.6006 C   0  0  0  0  0  0  0  0  0  0  0  0
   -4.7393   -8.6015   20.0301 N   0  0  0  0  0  0  0  0  0  0  0  0
   -5.0800   -8.7175   21.3971 C   0  0  0  0  0  0  0  0  0  0  0  0
   -6.0474   -7.9668   21.7881 O   0  0  0  0  0  0  0  0  0  0  0  0
   -4.4764   -9.5800   22.4043 C   0  0  2  0  0  0  0  0  0  0  0  0
   -3.9527  -10.8963   21.9839 C   0  0  0  0  0  0  0  0  0  0  0  0
   -3.3523  -11.6591   23.1861 C   0  0  0  0  0  0  0  0  0  0  0  0
   -2.8356  -12.9623   22.7394 C   0  0  0  0  0  0  0  0  0  0  0  0
   -2.4021  -13.7439   23.6393 O   0  0  0  0  0  0  0  0  0  0  0  0
   -2.7796  -13.4053   21.4418 O   0  0  0  0  0  0  0  0  0  0  0  0
   -5.3913   -9.6597   23.5643 N   0  0  0  0  0  0  0  0  0  0  0  0
   -6.6172  -10.2946   23.2440 C   0  0  0  0  0  0  0  0  0  0  0  0
   -6.7401  -10.7055   22.0622 O   0  0  0  0  0  0  0  0  0  0  0  0
   -7.7703  -10.5221   24.1396 C   0  0  2  0  0  0  0  0  0  0  0  0
   -7.6219  -10.6636   25.5533 C   0  0  0  0  0  0  0  0  0  0  0  0
   -6.8084  -11.7045   26.1673 C   0  0  0  0  0  0  0  0  0  0  0  0
   -6.1356  -12.5806   25.6312 O   0  0  0  0  0  0  0  0  0  0  0  0
   -6.7892  -11.7092   27.5883 O   0  0  0  0  0  0  0  0  0  0  0  0
   -8.7437  -11.3045   23.3882 N   0  0  0  0  0  0  0  0  0  0  0  0
   -8.4672  -12.5318   22.7757 C   0  0  0  0  0  0  0  0  0  0  0  0
   -7.2931  -13.0448   22.9022 O   0  0  0  0  0  0  0  0  0  0  0  0
   -9.3850  -13.3573   21.9476 C   0  0  2  0  0  0  0  0  0  0  0  0
  -10.5688  -13.9576   22.5260 C   0  0  0  0  0  0  0  0  0  0  0  0
  -11.6476  -13.1834   23.1597 C   0  0  0  0  0  0  0  0  0  0  0  0
  -12.3325  -12.1595   22.2944 C   0  0  0  0  0  0  0  0  0  0  0  0
  -11.4195  -12.7196   24.5674 C   0  0  0  0  0  0  0  0  0  0  0  0
   -8.5042  -14.5175   21.5815 N   0  0  0  0  0  0  0  0  0  0  0  0
   -7.3789  -14.4002   20.7686 C   0  0  0  0  0  0  0  0  0  0  0  0
   -7.1037  -13.2355   20.3104 O   0  0  0  0  0  0  0  0  0  0  0  0
   -6.5196  -15.5037   20.4231 C   0  0  2  0  0  0  0  0  0  0  0  0
   -5.7954  -16.0426   21.6462 C   0  0  0  0  0  0  0  0  0  0  0  0
   -6.5659  -16.5692   22.7746 C   0  0  0  0  0  0  0  0  0  0  0  0
   -5.5226  -17.0818   23.7702 C   0  0  0  0  0  0  0  0  0  0  0  0
   -4.3388  -16.9355   23.3984 O   0  0  0  0  0  0  0  0  0  0  0  0
   -5.9189  -17.6491   24.9645 O   0  0  0  0  0  0  0  0  0  0  0  0
   -5.3771  -15.0806   19.5735 N   0  0  0  0  0  0  0  0  0  0  0  0
   -4.9958  -15.7710   18.4143 C   0  0  0  0  0  0  0  0  0  0  0  0
   -5.7238  -16.7799   18.0993 O   0  0  0  0  0  0  0  0  0  0  0  0
   -3.8595  -15.4815   17.5466 C   0  0  2  0  0  0  0  0  0  0  0  0
   -3.7930  -14.2209   16.7775 C   0  0  0  0  0  0  0  0  0  0  0  0
   -3.8006  -12.9756   17.5900 C   0  0  0  0  0  0  0  0  0  0  0  0
   -3.6486  -11.7090   16.7495 C   0  0  0  0  0  0  0  0  0  0  0  0
   -2.4035  -11.7293   16.0170 N   0  0  0  0  0  0  0  0  0  0  0  0
   -2.0235  -10.6659   15.1691 C   0  0  0  0  0  0  0  0  0  0  0  0
   -0.7776  -10.7777   14.4770 N   0  0  0  0  0  0  0  0  0  0  0  0
   -2.7282   -9.6130   14.9772 N   0  0  0  0  0  0  0  0  0  0  0  0
   -3.7570  -16.6357   16.6110 N   0  0  0  0  0  0  0  0  0  0  0  0
   -3.2296  -17.8091   17.1832 C   0  0  0  0  0  0  0  0  0  0  0  0
   -2.9286  -17.7533   18.4213 O   0  0  0  0  0  0  0  0  0  0  0  0
   -2.9886  -19.1009   16.5145 C   0  0  1  0  0  0  0  0  0  0  0  0
   -2.7489  -20.1280   17.5468 N   0  0  0  0  0  0  0  0  0  0  0  0
   -1.5108  -20.7290   17.7920 C   0  0  0  0  0  0  0  0  0  0  0  0
   -0.4785  -20.4528   17.1564 O   0  0  0  0  0  0  0  0  0  0  0  0
   -1.4810  -21.7621   18.8941 C   0  0  2  0  0  0  0  0  0  0  0  0
   -1.9416  -21.0664   20.1516 C   0  0  0  0  0  0  0  0  0  0  0  0
   -0.1624  -22.2887   19.1175 N   0  0  0  0  0  0  0  0  0  0  0  0
   -3.9796  -19.5110   15.4933 C   0  0  1  0  0  0  0  0  0  0  0  0
   -5.3321  -19.9174   16.0845 C   0  0  0  0  0  0  0  0  0  0  0  0
   -4.1727  -18.5493   14.5181 O   0  0  0  0  0  0  0  0  0  0  0  0
   -9.2418   -8.9545   16.6224 C   0  0  0  0  0  0  0  0  0  0  0  0
  -10.1964   -9.7288   16.3603 O   0  0  0  0  0  0  0  0  0  0  0  0
   -8.3615   -8.6599   15.5219 N   0  0  0  0  0  0  0  0  0  0  0  0
   -8.7082   -9.3228   14.2780 C   0  0  1  0  0  0  0  0  0  0  0  0
   -8.7954   -8.2510   13.2202 C   0  0  0  0  0  0  0  0  0  0  0  0
   -7.5470  -10.1984   13.8368 C   0  0  0  0  0  0  0  0  0  0  0  0
   -6.4285   -9.8119   14.2719 O   0  0  0  0  0  0  0  0  0  0  0  0
   -7.7616  -11.3247   13.0274 N   0  0  0  0  0  0  0  0  0  0  0  0
   -6.8862  -12.2762   12.4814 C   0  0  1  0  0  0  0  0  0  0  0  0
   -5.6193  -12.5532   13.3338 C   0  0  0  0  0  0  0  0  0  0  0  0
   -4.8288  -11.4206   13.4166 O   0  0  0  0  0  0  0  0  0  0  0  0
   -7.5086  -13.5845   12.3478 C   0  0  0  0  0  0  0  0  0  0  0  0
   -6.7911  -14.5215   11.8603 O   0  0  0  0  0  0  0  0  0  0  0  0
   -8.8292  -13.9365   12.7057 N   0  0  0  0  0  0  0  0  0  0  0  0
   -9.3422  -15.2912   12.5601 C   0  0  1  0  0  0  0  0  0  0  0  0
  -10.0896  -15.7180   13.7900 C   0  0  0  0  0  0  0  0  0  0  0  0
   -9.2808  -15.6968   15.0481 C   0  0  0  0  0  0  0  0  0  0  0  0
   -8.0872  -16.5901   15.0458 C   0  0  0  0  0  0  0  0  0  0  0  0
  -10.1578  -16.0329   16.2453 C   0  0  0  0  0  0  0  0  0  0  0  0
  -10.2749  -15.3573   11.3742 C   0  0  0  0  0  0  0  0  0  0  0  0
  -11.5230  -15.3879   11.4984 O   0  0  0  0  0  0  0  0  0  0  0  0
   -9.7525  -15.3882   10.0647 O   0  0  0  0  0  0  0  0  0  0  0  0
  1  2  1  0
  2  3  1  0
  3  4  1  0
  5  4  1  6
  5  6  1  0
  6  7  1  0
  7  8  2  0
  7  9  1  0
  9 10  1  6
 10 11  1  0
 11 12  1  0
 11 13  1  0
  9 14  1  0
 14 15  1  0
 15 16  2  0
 15 17  1  0
 17 18  1  6
 18 19  1  0
 19 20  1  0
 20 21  2  0
 20 22  1  0
 17 23  1  0
 23 24  1  0
 24 25  2  0
 24 26  1  0
 26 27  1  1
 27 28  1  0
 28 29  2  0
 28 30  1  0
 26 31  1  0
 31 32  1  0
 32 33  2  0
 32 34  1  0
 34 35  1  1
 35 36  1  0
 36 37  1  0
 36 38  1  0
 34 39  1  0
 39 40  1  0
 40 41  2  0
 40 42  1  0
 42 43  1  1
 43 44  1  0
 44 45  1  0
 45 46  2  0
 45 47  1  0
 42 48  1  0
 48 49  1  0
 49 50  2  0
 49 51  1  0
 51 52  1  6
 52 53  1  0
 53 54  1  0
 54 55  1  0
 55 56  1  0
 56 57  1  0
 56 58  2  0
 51 59  1  0
 59 60  1  0
 60 61  2  0
 60 62  1  0
 62 63  1  1
 63 64  1  0
 64 65  2  0
 64 66  1  0
 66 67  1  1
 66 68  1  0
 62 69  1  0
 69 70  1  1
 69 71  1  0
  5 72  1  0
 72 73  2  0
 72 74  1  0
 74 75  1  0
 75 76  1  6
 75 77  1  0
 77 78  2  0
 77 79  1  0
 79 80  1  0
 80 81  1  1
 81 82  1  0
 80 83  1  0
 83 84  2  0
 83 85  1  0
 85 86  1  0
 86 87  1  1
 87 88  1  0
 88 89  1  0
 88 90  1  0
 86 91  1  0
 91 92  2  0
 91 93  1  0
M  CHG  6  22  -1  30  -1  47  -1  58   1  68   1  93  -1
M  END
>  <shape_align_shape_tanimoto>  (1) 
0.16910443981180129

>  <shape_align_color_tanimoto>  (1) 
0.011252871885104099

>  <metric>  (1) 
shape

>  <metric_score>  (1) 
0.169

>  <template_pid>  (1) 
3RQG

>  <template_shape_score>  (1) 
0.169

>  <template_color_score>  (1) 
0.011

>  <template_combo_score>  (1) 
0.090

$$$$
3RQG_color_pose
     RDKit          3D

 93 92  0  0  0  0  0  0  0  0999 V2000
    3.2973  -15.8811   16.1567 C   0  0  0  0  0  0  0  0  0  0  0  0
    2.4369  -17.3217   16.8292 S   0  0  0  0  0  0  0  0  0  0  0  0
    1.0355  -16.6846   17.8322 C   0  0  0  0  0  0  0  0  0  0  0  0
    1.5547  -15.9452   19.0337 C   0  0  0  0  0  0  0  0  0  0  0  0
    0.3402  -15.4138   19.8237 C   0  0  2  0  0  0  0  0  0  0  0  0
    0.8730  -14.6810   21.0029 N   0  0  0  0  0  0  0  0  0  0  0  0
    0.8062  -13.2621   20.8616 C   0  0  0  0  0  0  0  0  0  0  0  0
    0.3763  -12.6969   19.8122 O   0  0  0  0  0  0  0  0  0  0  0  0
    1.2454  -12.3385   21.9771 C   0  0  2  0  0  0  0  0  0  0  0  0
    0.1211  -12.4254   22.9680 C   0  0  0  0  0  0  0  0  0  0  0  0
    0.2168  -11.6473   24.2153 C   0  0  0  0  0  0  0  0  0  0  0  0
    0.3194  -10.1729   24.1009 C   0  0  0  0  0  0  0  0  0  0  0  0
   -1.0494  -11.9366   25.0559 C   0  0  0  0  0  0  0  0  0  0  0  0
    1.1812  -11.0104   21.3408 N   0  0  0  0  0  0  0  0  0  0  0  0
    2.2003  -10.0473   21.5298 C   0  0  0  0  0  0  0  0  0  0  0  0
    3.1609  -10.3956   22.3064 O   0  0  0  0  0  0  0  0  0  0  0  0
    2.2804   -8.7112   20.9444 C   0  0  2  0  0  0  0  0  0  0  0  0
    2.0231   -7.7291   22.1002 C   0  0  0  0  0  0  0  0  0  0  0  0
    2.1076   -6.3297   21.4662 C   0  0  0  0  0  0  0  0  0  0  0  0
    1.8692   -5.2875   22.4732 C   0  0  0  0  0  0  0  0  0  0  0  0
    1.6423   -5.6180   23.6770 O   0  0  0  0  0  0  0  0  0  0  0  0
    1.8991   -3.9682   22.0795 O   0  0  0  0  0  0  0  0  0  0  0  0
    1.3617   -8.5113   19.8852 N   0  0  0  0  0  0  0  0  0  0  0  0
   -0.0060   -8.2437   19.9330 C   0  0  0  0  0  0  0  0  0  0  0  0
   -0.5941   -8.1712   21.0177 O   0  0  0  0  0  0  0  0  0  0  0  0
   -0.7697   -8.0395   18.6330 C   0  0  2  0  0  0  0  0  0  0  0  0
   -0.2165   -6.7017   18.1274 C   0  0  0  0  0  0  0  0  0  0  0  0
   -0.8086   -6.2503   16.8757 C   0  0  0  0  0  0  0  0  0  0  0  0
   -1.8256   -5.5190   16.8088 O   0  0  0  0  0  0  0  0  0  0  0  0
   -0.2475   -6.6272   15.6475 O   0  0  0  0  0  0  0  0  0  0  0  0
   -2.1902   -8.0007   18.8435 N   0  0  0  0  0  0  0  0  0  0  0  0
   -3.0156   -8.8780   18.0305 C   0  0  0  0  0  0  0  0  0  0  0  0
   -2.3240   -9.5669   17.1979 O   0  0  0  0  0  0  0  0  0  0  0  0
   -4.4650   -8.9581   18.1526 C   0  0  2  0  0  0  0  0  0  0  0  0
   -5.2479   -8.2581   17.1186 C   0  0  0  0  0  0  0  0  0  0  0  0
   -5.1053   -8.6412   15.6844 C   0  0  0  0  0  0  0  0  0  0  0  0
   -6.1231   -7.7899   14.8503 C   0  0  0  0  0  0  0  0  0  0  0  0
   -3.7745   -8.2276   15.0502 C   0  0  0  0  0  0  0  0  0  0  0  0
   -4.8229   -8.4639   19.4941 N   0  0  0  0  0  0  0  0  0  0  0  0
   -5.4906   -9.3722   20.3399 C   0  0  0  0  0  0  0  0  0  0  0  0
   -5.7285  -10.5364   19.8323 O   0  0  0  0  0  0  0  0  0  0  0  0
   -5.9475   -9.1820   21.7047 C   0  0  2  0  0  0  0  0  0  0  0  0
   -4.8312   -9.0399   22.7412 C   0  0  0  0  0  0  0  0  0  0  0  0
   -3.8823   -7.9155   22.5186 C   0  0  0  0  0  0  0  0  0  0  0  0
   -4.5092   -6.5759   22.5131 C   0  0  0  0  0  0  0  0  0  0  0  0
   -5.7191   -6.3384   22.6476 O   0  0  0  0  0  0  0  0  0  0  0  0
   -3.6451   -5.4875   22.3418 O   0  0  0  0  0  0  0  0  0  0  0  0
   -6.7237  -10.4002   22.0612 N   0  0  0  0  0  0  0  0  0  0  0  0
   -6.7881  -10.9814   23.3115 C   0  0  0  0  0  0  0  0  0  0  0  0
   -6.1504  -10.5341   24.3434 O   0  0  0  0  0  0  0  0  0  0  0  0
   -7.5903  -12.2105   23.6643 C   0  0  2  0  0  0  0  0  0  0  0  0
   -6.6505  -13.4157   23.4985 C   0  0  0  0  0  0  0  0  0  0  0  0
   -5.4381  -13.4024   24.2566 C   0  0  0  0  0  0  0  0  0  0  0  0
   -5.1697  -13.4546   25.6722 C   0  0  0  0  0  0  0  0  0  0  0  0
   -5.6395  -12.5779   26.6482 N   0  0  0  0  0  0  0  0  0  0  0  0
   -6.9175  -12.5304   27.2644 C   0  0  0  0  0  0  0  0  0  0  0  0
   -7.1899  -11.5129   28.2502 N   0  0  0  0  0  0  0  0  0  0  0  0
   -7.8255  -13.3600   26.9566 N   0  0  0  0  0  0  0  0  0  0  0  0
   -8.6287  -12.3857   22.6161 N   0  0  0  0  0  0  0  0  0  0  0  0
   -9.9325  -12.6662   23.0521 C   0  0  0  0  0  0  0  0  0  0  0  0
  -10.0993  -12.7434   24.3200 O   0  0  0  0  0  0  0  0  0  0  0  0
  -11.1231  -12.8807   22.2195 C   0  0  1  0  0  0  0  0  0  0  0  0
  -10.8740  -12.6500   20.8238 N   0  0  0  0  0  0  0  0  0  0  0  0
  -11.6339  -11.6203   20.1897 C   0  0  0  0  0  0  0  0  0  0  0  0
  -12.4877  -10.9459   20.8664 O   0  0  0  0  0  0  0  0  0  0  0  0
  -11.5139  -11.2566   18.7681 C   0  0  2  0  0  0  0  0  0  0  0  0
  -12.8311  -11.1491   18.0721 C   0  0  0  0  0  0  0  0  0  0  0  0
  -10.6171  -12.1051   18.0125 N   0  0  0  0  0  0  0  0  0  0  0  0
  -11.7366  -14.2503   22.4556 C   0  0  1  0  0  0  0  0  0  0  0  0
  -12.0401  -14.3565   23.9313 C   0  0  0  0  0  0  0  0  0  0  0  0
  -12.9320  -14.3105   21.7674 O   0  0  0  0  0  0  0  0  0  0  0  0
   -0.3995  -16.6092   20.3046 C   0  0  0  0  0  0  0  0  0  0  0  0
    0.0380  -17.1003   21.4002 O   0  0  0  0  0  0  0  0  0  0  0  0
   -1.4907  -17.1192   19.5905 N   0  0  0  0  0  0  0  0  0  0  0  0
   -2.3015  -18.2624   19.9240 C   0  0  1  0  0  0  0  0  0  0  0  0
   -2.1466  -18.4705   21.5070 C   0  0  0  0  0  0  0  0  0  0  0  0
   -3.7491  -18.0620   19.7652 C   0  0  0  0  0  0  0  0  0  0  0  0
   -4.5075  -19.0511   19.9296 O   0  0  0  0  0  0  0  0  0  0  0  0
   -4.2347  -16.7699   19.4505 N   0  0  0  0  0  0  0  0  0  0  0  0
   -5.6116  -16.3919   19.3122 C   0  0  1  0  0  0  0  0  0  0  0  0
   -5.9787  -15.2984   20.3138 C   0  0  0  0  0  0  0  0  0  0  0  0
   -7.3078  -14.9109   20.1824 O   0  0  0  0  0  0  0  0  0  0  0  0
   -5.9461  -15.9021   17.9809 C   0  0  0  0  0  0  0  0  0  0  0  0
   -7.0972  -15.4213   17.7553 O   0  0  0  0  0  0  0  0  0  0  0  0
   -5.0639  -15.9088   16.8453 N   0  0  0  0  0  0  0  0  0  0  0  0
   -5.6693  -15.3305   15.6333 C   0  0  1  0  0  0  0  0  0  0  0  0
   -4.7026  -14.9139   14.5971 C   0  0  0  0  0  0  0  0  0  0  0  0
   -5.2120  -14.1979   13.4038 C   0  0  0  0  0  0  0  0  0  0  0  0
   -5.8841  -12.8701   13.8136 C   0  0  0  0  0  0  0  0  0  0  0  0
   -6.2331  -14.9352   12.6045 C   0  0  0  0  0  0  0  0  0  0  0  0
   -6.3701  -16.5909   15.0781 C   0  0  0  0  0  0  0  0  0  0  0  0
   -7.4800  -16.9346   15.5711 O   0  0  0  0  0  0  0  0  0  0  0  0
   -5.8328  -17.3485   14.0865 O   0  0  0  0  0  0  0  0  0  0  0  0
  1  2  1  0
  2  3  1  0
  3  4  1  0
  5  4  1  6
  5  6  1  0
  6  7  1  0
  7  8  2  0
  7  9  1  0
  9 10  1  1
 10 11  1  0
 11 12  1  0
 11 13  1  0
  9 14  1  0
 14 15  1  0
 15 16  2  0
 15 17  1  0
 17 18  1  1
 18 19  1  0
 19 20  1  0
 20 21  2  0
 20 22  1  0
 17 23  1  0
 23 24  1  0
 24 25  2  0
 24 26  1  0
 26 27  1  1
 27 28  1  0
 28 29  2  0
 28 30  1  0
 26 31  1  0
 31 32  1  0
 32 33  2  0
 32 34  1  0
 34 35  1  6
 35 36  1  0
 36 37  1  0
 36 38  1  0
 34 39  1  0
 39 40  1  0
 40 41  2  0
 40 42  1  0
 42 43  1  1
 43 44  1  0
 44 45  1  0
 45 46  2  0
 45 47  1  0
 42 48  1  0
 48 49  1  0
 49 50  2  0
 49 51  1  0
 51 52  1  6
 52 53  1  0
 53 54  1  0
 54 55  1  0
 55 56  1  0
 56 57  1  0
 56 58  2  0
 51 59  1  0
 59 60  1  0
 60 61  2  0
 60 62  1  0
 62 63  1  6
 63 64  1  0
 64 65  2  0
 64 66  1  0
 66 67  1  6
 66 68  1  0
 62 69  1  0
 69 70  1  1
 69 71  1  0
  5 72  1  0
 72 73  2  0
 72 74  1  0
 74 75  1  0
 75 76  1  1
 75 77  1  0
 77 78  2  0
 77 79  1  0
 79 80  1  0
 80 81  1  1
 81 82  1  0
 80 83  1  0
 83 84  2  0
 83 85  1  0
 85 86  1  0
 86 87  1  6
 87 88  1  0
 88 89  1  0
 88 90  1  0
 86 91  1  0
 91 92  2  0
 91 93  1  0
M  CHG  6  22  -1  30  -1  47  -1  58   1  68   1  93  -1
M  END
>  <shape_align_shape_tanimoto>  (2) 
0.12816217207604508

>  <shape_align_color_tanimoto>  (2) 
0.032625356562411827

>  <metric>  (2) 
color

>  <metric_score>  (2) 
0.033

>  <template_pid>  (2) 
3RQG

>  <template_shape_score>  (2) 
0.128

>  <template_color_score>  (2) 
0.033

>  <template_combo_score>  (2) 
0.080

$$$$
3RQG_combo_pose
     RDKit          3D

 93 92  0  0  0  0  0  0  0  0999 V2000
   -0.4931  -23.2757   21.1608 C   0  0  0  0  0  0  0  0  0  0  0  0
   -2.1043  -23.3312   20.3548 S   0  0  0  0  0  0  0  0  0  0  0  0
   -2.5083  -21.7246   19.5757 C   0  0  0  0  0  0  0  0  0  0  0  0
   -2.6714  -20.6918   20.6188 C   0  0  0  0  0  0  0  0  0  0  0  0
   -2.9529  -19.3174   20.0048 C   0  0  2  0  0  0  0  0  0  0  0  0
   -3.0952  -18.3865   21.1277 N   0  0  0  0  0  0  0  0  0  0  0  0
   -2.0657  -17.4749   21.4480 C   0  0  0  0  0  0  0  0  0  0  0  0
   -1.0454  -17.5510   20.6317 O   0  0  0  0  0  0  0  0  0  0  0  0
   -1.9282  -16.5038   22.4874 C   0  0  2  0  0  0  0  0  0  0  0  0
   -0.4848  -16.7026   23.1184 C   0  0  0  0  0  0  0  0  0  0  0  0
   -0.3213  -18.0701   23.6676 C   0  0  0  0  0  0  0  0  0  0  0  0
   -1.3119  -18.3682   24.7608 C   0  0  0  0  0  0  0  0  0  0  0  0
    1.0609  -18.1856   24.2881 C   0  0  0  0  0  0  0  0  0  0  0  0
   -2.8379  -16.3012   23.5425 N   0  0  0  0  0  0  0  0  0  0  0  0
   -2.9894  -14.9479   24.0341 C   0  0  0  0  0  0  0  0  0  0  0  0
   -2.3216  -14.0178   23.4473 O   0  0  0  0  0  0  0  0  0  0  0  0
   -3.8270  -14.5430   25.1452 C   0  0  2  0  0  0  0  0  0  0  0  0
   -5.2331  -15.0828   25.2091 C   0  0  0  0  0  0  0  0  0  0  0  0
   -5.8144  -14.4769   26.4940 C   0  0  0  0  0  0  0  0  0  0  0  0
   -7.1839  -14.8764   26.7837 C   0  0  0  0  0  0  0  0  0  0  0  0
   -7.8986  -15.6749   26.1495 O   0  0  0  0  0  0  0  0  0  0  0  0
   -7.7851  -14.2932   27.9208 O   0  0  0  0  0  0  0  0  0  0  0  0
   -3.8446  -13.0789   25.3233 N   0  0  0  0  0  0  0  0  0  0  0  0
   -3.4502  -12.4397   26.5094 C   0  0  0  0  0  0  0  0  0  0  0  0
   -3.0457  -13.1714   27.4879 O   0  0  0  0  0  0  0  0  0  0  0  0
   -3.4516  -10.9889   26.7725 C   0  0  2  0  0  0  0  0  0  0  0  0
   -4.5049  -10.6911   27.8663 C   0  0  0  0  0  0  0  0  0  0  0  0
   -4.5802   -9.2725   28.2062 C   0  0  0  0  0  0  0  0  0  0  0  0
   -3.7208   -8.7727   28.9711 O   0  0  0  0  0  0  0  0  0  0  0  0
   -5.5878   -8.4191   27.7121 O   0  0  0  0  0  0  0  0  0  0  0  0
   -3.7224  -10.2120   25.6026 N   0  0  0  0  0  0  0  0  0  0  0  0
   -3.1021   -8.9242   25.3714 C   0  0  0  0  0  0  0  0  0  0  0  0
   -2.3107   -8.4457   26.2230 O   0  0  0  0  0  0  0  0  0  0  0  0
   -3.4149   -8.1540   24.0911 C   0  0  2  0  0  0  0  0  0  0  0  0
   -3.9404   -6.8376   24.4633 C   0  0  0  0  0  0  0  0  0  0  0  0
   -4.2624   -5.8289   23.4183 C   0  0  0  0  0  0  0  0  0  0  0  0
   -4.7758   -4.5866   24.1824 C   0  0  0  0  0  0  0  0  0  0  0  0
   -5.2322   -6.1323   22.3532 C   0  0  0  0  0  0  0  0  0  0  0  0
   -4.1423   -9.0669   23.2927 N   0  0  0  0  0  0  0  0  0  0  0  0
   -5.5282   -9.2800   23.2007 C   0  0  0  0  0  0  0  0  0  0  0  0
   -6.3410   -8.6169   23.9030 O   0  0  0  0  0  0  0  0  0  0  0  0
   -6.0485  -10.2806   22.2948 C   0  0  2  0  0  0  0  0  0  0  0  0
   -6.0002  -10.0008   20.8166 C   0  0  0  0  0  0  0  0  0  0  0  0
   -4.6343   -9.7943   20.3017 C   0  0  0  0  0  0  0  0  0  0  0  0
   -4.7134   -9.5965   18.7895 C   0  0  0  0  0  0  0  0  0  0  0  0
   -5.8153   -9.6196   18.1967 O   0  0  0  0  0  0  0  0  0  0  0  0
   -3.5524   -9.3886   18.0468 O   0  0  0  0  0  0  0  0  0  0  0  0
   -7.5168  -10.4927   22.5150 N   0  0  0  0  0  0  0  0  0  0  0  0
   -7.8810  -11.8329   22.7181 C   0  0  0  0  0  0  0  0  0  0  0  0
   -7.0866  -12.7851   22.7559 O   0  0  0  0  0  0  0  0  0  0  0  0
   -9.3579  -12.2536   22.8985 C   0  0  2  0  0  0  0  0  0  0  0  0
   -9.7978  -12.0817   24.2835 C   0  0  0  0  0  0  0  0  0  0  0  0
   -9.7392  -10.6748   24.8263 C   0  0  0  0  0  0  0  0  0  0  0  0
  -10.6592   -9.7455   24.0986 C   0  0  0  0  0  0  0  0  0  0  0  0
  -12.0563  -10.0742   24.1653 N   0  0  0  0  0  0  0  0  0  0  0  0
  -12.8665  -10.0479   25.3100 C   0  0  0  0  0  0  0  0  0  0  0  0
  -14.2577  -10.4219   25.1428 N   0  0  0  0  0  0  0  0  0  0  0  0
  -12.4639   -9.7129   26.4947 N   0  0  0  0  0  0  0  0  0  0  0  0
   -9.2148  -13.7266   22.6598 N   0  0  0  0  0  0  0  0  0  0  0  0
   -8.6194  -14.0288   21.4318 C   0  0  0  0  0  0  0  0  0  0  0  0
   -8.2502  -13.1331   20.5784 O   0  0  0  0  0  0  0  0  0  0  0  0
   -8.2994  -15.4304   20.9302 C   0  0  1  0  0  0  0  0  0  0  0  0
   -6.8824  -15.3020   20.5990 N   0  0  0  0  0  0  0  0  0  0  0  0
   -6.2957  -14.8048   19.4537 C   0  0  0  0  0  0  0  0  0  0  0  0
   -6.9851  -14.4063   18.5033 O   0  0  0  0  0  0  0  0  0  0  0  0
   -4.7801  -14.7699   19.4382 C   0  0  2  0  0  0  0  0  0  0  0  0
   -4.3048  -13.9793   20.6584 C   0  0  0  0  0  0  0  0  0  0  0  0
   -4.3109  -14.0981   18.2709 N   0  0  0  0  0  0  0  0  0  0  0  0
   -8.5983  -16.3930   22.0123 C   0  0  1  0  0  0  0  0  0  0  0  0
   -8.2904  -17.8217   21.6399 C   0  0  0  0  0  0  0  0  0  0  0  0
   -7.9280  -16.0753   23.1940 O   0  0  0  0  0  0  0  0  0  0  0  0
   -4.0053  -19.3408   19.0073 C   0  0  0  0  0  0  0  0  0  0  0  0
   -3.8207  -20.0763   17.9707 O   0  0  0  0  0  0  0  0  0  0  0  0
   -5.2374  -18.6499   19.0244 N   0  0  0  0  0  0  0  0  0  0  0  0
   -6.2361  -18.7661   17.9726 C   0  0  1  0  0  0  0  0  0  0  0  0
   -7.6031  -19.1007   18.4253 C   0  0  0  0  0  0  0  0  0  0  0  0
   -6.1698  -17.6133   17.0534 C   0  0  0  0  0  0  0  0  0  0  0  0
   -5.1833  -16.8486   17.1593 O   0  0  0  0  0  0  0  0  0  0  0  0
   -7.1315  -17.2979   16.0628 N   0  0  0  0  0  0  0  0  0  0  0  0
   -6.9265  -16.1091   15.2484 C   0  0  1  0  0  0  0  0  0  0  0  0
   -6.7285  -16.5182   13.8338 C   0  0  0  0  0  0  0  0  0  0  0  0
   -5.5861  -17.3532   13.8131 O   0  0  0  0  0  0  0  0  0  0  0  0
   -7.9796  -15.1078   15.4841 C   0  0  0  0  0  0  0  0  0  0  0  0
   -8.9125  -15.4681   16.2946 O   0  0  0  0  0  0  0  0  0  0  0  0
   -8.0541  -13.8250   14.9189 N   0  0  0  0  0  0  0  0  0  0  0  0
   -9.1665  -12.9419   15.2604 C   0  0  1  0  0  0  0  0  0  0  0  0
   -8.7047  -11.8305   16.1803 C   0  0  0  0  0  0  0  0  0  0  0  0
   -9.8917  -10.9719   16.5282 C   0  0  0  0  0  0  0  0  0  0  0  0
   -9.5029   -9.8308   17.4548 C   0  0  0  0  0  0  0  0  0  0  0  0
  -10.9593  -11.7898   17.2605 C   0  0  0  0  0  0  0  0  0  0  0  0
   -9.8054  -12.3863   14.0688 C   0  0  0  0  0  0  0  0  0  0  0  0
   -9.6798  -11.2239   13.6288 O   0  0  0  0  0  0  0  0  0  0  0  0
  -10.6474  -13.2363   13.3346 O   0  0  0  0  0  0  0  0  0  0  0  0
  1  2  1  0
  2  3  1  0
  3  4  1  0
  5  4  1  1
  5  6  1  0
  6  7  1  0
  7  8  2  0
  7  9  1  0
  9 10  1  1
 10 11  1  0
 11 12  1  0
 11 13  1  0
  9 14  1  0
 14 15  1  0
 15 16  2  0
 15 17  1  0
 17 18  1  6
 18 19  1  0
 19 20  1  0
 20 21  2  0
 20 22  1  0
 17 23  1  0
 23 24  1  0
 24 25  2  0
 24 26  1  0
 26 27  1  1
 27 28  1  0
 28 29  2  0
 28 30  1  0
 26 31  1  0
 31 32  1  0
 32 33  2  0
 32 34  1  0
 34 35  1  1
 35 36  1  0
 36 37  1  0
 36 38  1  0
 34 39  1  0
 39 40  1  0
 40 41  2  0
 40 42  1  0
 42 43  1  6
 43 44  1  0
 44 45  1  0
 45 46  2  0
 45 47  1  0
 42 48  1  0
 48 49  1  0
 49 50  2  0
 49 51  1  0
 51 52  1  1
 52 53  1  0
 53 54  1  0
 54 55  1  0
 55 56  1  0
 56 57  1  0
 56 58  2  0
 51 59  1  0
 59 60  1  0
 60 61  2  0
 60 62  1  0
 62 63  1  1
 63 64  1  0
 64 65  2  0
 64 66  1  0
 66 67  1  1
 66 68  1  0
 62 69  1  0
 69 70  1  6
 69 71  1  0
  5 72  1  0
 72 73  2  0
 72 74  1  0
 74 75  1  0
 75 76  1  1
 75 77  1  0
 77 78  2  0
 77 79  1  0
 79 80  1  0
 80 81  1  6
 81 82  1  0
 80 83  1  0
 83 84  2  0
 83 85  1  0
 85 86  1  0
 86 87  1  1
 87 88  1  0
 88 89  1  0
 88 90  1  0
 86 91  1  0
 91 92  2  0
 91 93  1  0
M  CHG  6  22  -1  30  -1  47  -1  58   1  68   1  93  -1
M  END
>  <shape_align_shape_tanimoto>  (3) 
0.16082746205838105

>  <shape_align_color_tanimoto>  (3) 
0.02835119077331371

>  <metric>  (3) 
combo

>  <metric_score>  (3) 
0.095

>  <template_pid>  (3) 
3RQG

>  <template_shape_score>  (3) 
0.161

>  <template_color_score>  (3) 
0.028

>  <template_combo_score>  (3) 
0.095

$$$$
