5AQU_shape_pose
     RDKit          3D

 22 24  0  0  0  0  0  0  0  0999 V2000
  -31.3554   17.9821   59.1403 C   0  0  0  0  0  0  0  0  0  0  0  0
  -30.6310   17.0810   59.9434 O   0  0  0  0  0  0  0  0  0  0  0  0
  -29.9023   17.4544   61.0334 C   0  0  0  0  0  0  0  0  0  0  0  0
  -29.8857   18.8045   61.3539 C   0  0  0  0  0  0  0  0  0  0  0  0
  -29.1951   19.3218   62.4231 C   0  0  0  0  0  0  0  0  0  0  0  0
  -28.4810   18.4548   63.2196 C   0  0  0  0  0  0  0  0  0  0  0  0
  -28.5065   17.1230   62.8908 C   0  0  0  0  0  0  0  0  0  0  0  0
  -27.8064   16.2779   63.6739 N   0  0  0  0  0  0  0  0  0  0  0  0
  -27.7890   14.9453   63.4054 C   0  0  0  0  0  0  0  0  0  0  0  0
  -28.4709   14.4631   62.3557 N   0  0  0  0  0  0  0  0  0  0  0  0
  -29.1922   15.2511   61.5306 C   0  0  0  0  0  0  0  0  0  0  0  0
  -29.8650   14.6423   60.4660 N   0  0  0  0  0  0  0  0  0  0  0  0
  -29.7320   13.1798   60.3509 C   0  0  2  0  0  0  0  0  0  0  0  0
  -30.3183   12.5007   61.5692 C   0  0  0  0  0  0  0  0  0  0  0  0
  -29.4484   11.3383   61.8815 C   0  0  2  0  0  0  0  0  0  0  0  0
  -29.3260   10.9607   63.3127 C   0  0  0  0  0  0  0  0  0  0  0  0
  -28.8191   11.9138   64.1557 O   0  0  0  0  0  0  0  0  0  0  0  0
  -28.0784   11.6733   61.3325 C   0  0  1  0  0  0  0  0  0  0  0  0
  -27.5895   10.4726   60.7705 O   0  0  0  0  0  0  0  0  0  0  0  0
  -28.3079   12.7477   60.3194 C   0  0  1  0  0  0  0  0  0  0  0  0
  -28.0652   12.1438   59.0627 O   0  0  0  0  0  0  0  0  0  0  0  0
  -29.1961   16.5978   61.8212 C   0  0  0  0  0  0  0  0  0  0  0  0
  1  2  1  0
  2  3  1  0
  3  4  2  0
  4  5  1  0
  5  6  2  0
  6  7  1  0
  7  8  2  0
  8  9  1  0
  9 10  2  0
 10 11  1  0
 11 12  1  0
 13 12  1  1
 13 14  1  0
 14 15  1  0
 15 16  1  1
 16 17  1  0
 15 18  1  0
 18 19  1  6
 18 20  1  0
 20 21  1  6
 11 22  2  0
 22  3  1  0
 22  7  1  0
 20 13  1  0
M  END
>  <shape_align_shape_tanimoto>  (1) 
0.7144015109327212

>  <shape_align_color_tanimoto>  (1) 
0.1135330035388883

>  <metric>  (1) 
shape

>  <metric_score>  (1) 
0.714

>  <template_pid>  (1) 
5AQU

>  <template_shape_score>  (1) 
0.714

>  <template_color_score>  (1) 
0.114

>  <template_combo_score>  (1) 
0.414

$$$$
5AQU_color_pose
     RDKit          3D

 22 24  0  0  0  0  0  0  0  0999 V2000
  -31.2286   16.8301   58.7289 C   0  0  0  0  0  0  0  0  0  0  0  0
  -30.3829   16.4648   59.7830 O   0  0  0  0  0  0  0  0  0  0  0  0
  -30.0546   17.3762   60.7577 C   0  0  0  0  0  0  0  0  0  0  0  0
  -30.5757   18.6462   60.6694 C   0  0  0  0  0  0  0  0  0  0  0  0
  -30.3288   19.6517   61.5744 C   0  0  0  0  0  0  0  0  0  0  0  0
  -29.5033   19.3632   62.6395 C   0  0  0  0  0  0  0  0  0  0  0  0
  -28.9852   18.0919   62.7228 C   0  0  0  0  0  0  0  0  0  0  0  0
  -28.1707   17.8343   63.7881 N   0  0  0  0  0  0  0  0  0  0  0  0
  -27.6345   16.6061   63.9209 C   0  0  0  0  0  0  0  0  0  0  0  0
  -27.8918   15.6411   63.0223 N   0  0  0  0  0  0  0  0  0  0  0  0
  -28.6919   15.8412   61.9473 C   0  0  0  0  0  0  0  0  0  0  0  0
  -28.8965   14.7616   61.0649 N   0  0  0  0  0  0  0  0  0  0  0  0
  -28.2023   13.5056   61.4276 C   0  0  2  0  0  0  0  0  0  0  0  0
  -28.4364   12.4183   60.4188 C   0  0  0  0  0  0  0  0  0  0  0  0
  -29.6905   11.6885   60.8235 C   0  0  2  0  0  0  0  0  0  0  0  0
  -30.6908   11.8072   59.6702 C   0  0  0  0  0  0  0  0  0  0  0  0
  -30.1788   11.2469   58.5113 O   0  0  0  0  0  0  0  0  0  0  0  0
  -30.2025   12.4311   62.0335 C   0  0  1  0  0  0  0  0  0  0  0  0
  -30.9150   11.6480   62.9122 O   0  0  0  0  0  0  0  0  0  0  0  0
  -28.8840   12.9187   62.6465 C   0  0  1  0  0  0  0  0  0  0  0  0
  -28.1063   11.8328   63.0493 O   0  0  0  0  0  0  0  0  0  0  0  0
  -29.2371   17.0921   61.8135 C   0  0  0  0  0  0  0  0  0  0  0  0
  1  2  1  0
  2  3  1  0
  3  4  2  0
  4  5  1  0
  5  6  2  0
  6  7  1  0
  7  8  2  0
  8  9  1  0
  9 10  2  0
 10 11  1  0
 11 12  1  0
 13 12  1  6
 13 14  1  0
 14 15  1  0
 15 16  1  6
 16 17  1  0
 15 18  1  0
 18 19  1  1
 18 20  1  0
 20 21  1  6
 11 22  2  0
 22  3  1  0
 22  7  1  0
 20 13  1  0
M  END
>  <shape_align_shape_tanimoto>  (2) 
0.67725657288755881

>  <shape_align_color_tanimoto>  (2) 
0.16499414525792944

>  <metric>  (2) 
color

>  <metric_score>  (2) 
0.165

>  <template_pid>  (2) 
5AQU

>  <template_shape_score>  (2) 
0.677

>  <template_color_score>  (2) 
0.165

>  <template_combo_score>  (2) 
0.421

$$$$
5AQU_combo_pose
     RDKit          3D

 22 24  0  0  0  0  0  0  0  0999 V2000
  -31.3736   17.2870   58.8199 C   0  0  0  0  0  0  0  0  0  0  0  0
  -30.5060   16.8191   59.8193 O   0  0  0  0  0  0  0  0  0  0  0  0
  -30.0717   17.6016   60.8483 C   0  0  0  0  0  0  0  0  0  0  0  0
  -30.5078   18.9088   60.9030 C   0  0  0  0  0  0  0  0  0  0  0  0
  -30.1536   19.8012   61.8738 C   0  0  0  0  0  0  0  0  0  0  0  0
  -29.3020   19.3648   62.8665 C   0  0  0  0  0  0  0  0  0  0  0  0
  -28.8681   18.0773   62.8189 C   0  0  0  0  0  0  0  0  0  0  0  0
  -28.0316   17.6615   63.7990 N   0  0  0  0  0  0  0  0  0  0  0  0
  -27.5730   16.4118   63.8047 C   0  0  0  0  0  0  0  0  0  0  0  0
  -27.9351   15.5351   62.8310 N   0  0  0  0  0  0  0  0  0  0  0  0
  -28.7696   15.8885   61.8215 C   0  0  0  0  0  0  0  0  0  0  0  0
  -29.0760   14.9007   60.8694 N   0  0  0  0  0  0  0  0  0  0  0  0
  -28.4632   13.5857   61.0648 C   0  0  2  0  0  0  0  0  0  0  0  0
  -28.8606   12.6427   59.9439 C   0  0  0  0  0  0  0  0  0  0  0  0
  -29.9713   11.8205   60.5652 C   0  0  2  0  0  0  0  0  0  0  0  0
  -31.2599   12.5675   60.5081 C   0  0  0  0  0  0  0  0  0  0  0  0
  -32.2870   11.7889   61.0890 O   0  0  0  0  0  0  0  0  0  0  0  0
  -29.4347   11.6198   61.9389 C   0  0  1  0  0  0  0  0  0  0  0  0
  -28.2681   10.8548   61.8237 O   0  0  0  0  0  0  0  0  0  0  0  0
  -28.9807   13.0075   62.3362 C   0  0  1  0  0  0  0  0  0  0  0  0
  -28.0388   12.9479   63.3665 O   0  0  0  0  0  0  0  0  0  0  0  0
  -29.2273   17.1708   61.8338 C   0  0  0  0  0  0  0  0  0  0  0  0
  1  2  1  0
  2  3  1  0
  3  4  2  0
  4  5  1  0
  5  6  2  0
  6  7  1  0
  7  8  2  0
  8  9  1  0
  9 10  2  0
 10 11  1  0
 11 12  1  0
 13 12  1  6
 13 14  1  0
 14 15  1  0
 15 16  1  1
 16 17  1  0
 15 18  1  0
 18 19  1  6
 18 20  1  0
 20 21  1  1
 11 22  2  0
 22  3  1  0
 22  7  1  0
 20 13  1  0
M  END
>  <shape_align_shape_tanimoto>  (3) 
0.70785581139952547

>  <shape_align_color_tanimoto>  (3) 
0.15277935609891308

>  <metric>  (3) 
combo

>  <metric_score>  (3) 
0.430

>  <template_pid>  (3) 
5AQU

>  <template_shape_score>  (3) 
0.708

>  <template_color_score>  (3) 
0.153

>  <template_combo_score>  (3) 
0.430

$$$$
