3RXG_shape_pose
     RDKit          3D

  8  8  0  0  0  0  0  0  0  0999 V2000
   15.7142   49.3645   61.4620 N   0  0  0  0  0  0  0  0  0  0  0  0
   14.3797   49.1777   61.9829 C   0  0  1  0  0  0  0  0  0  0  0  0
   13.9913   50.3743   62.8063 C   0  0  0  0  0  0  0  0  0  0  0  0
   12.6271   50.0705   63.4115 C   0  0  0  0  0  0  0  0  0  0  0  0
   11.6623   50.0956   62.2308 C   0  0  2  0  0  0  0  0  0  0  0  0
   10.3429   50.0118   62.6253 O   0  0  0  0  0  0  0  0  0  0  0  0
   12.0192   48.9633   61.3042 C   0  0  0  0  0  0  0  0  0  0  0  0
   13.4263   49.1120   60.7946 C   0  0  0  0  0  0  0  0  0  0  0  0
  2  1  1  6
  2  3  1  0
  3  4  1  0
  4  5  1  0
  5  6  1  1
  5  7  1  0
  7  8  1  0
  8  2  1  0
M  CHG  1   1   1
M  END
>  <shape_align_shape_tanimoto>  (1) 
0.23870659059497415

>  <shape_align_color_tanimoto>  (1) 
0.050741798775895297

>  <metric>  (1) 
shape

>  <metric_score>  (1) 
0.239

>  <template_pid>  (1) 
3RXG

>  <template_shape_score>  (1) 
0.239

>  <template_color_score>  (1) 
0.051

>  <template_combo_score>  (1) 
0.145

$$$$
3RXG_color_pose
     RDKit          3D

  8  8  0  0  0  0  0  0  0  0999 V2000
   12.1479   51.0292   61.4950 N   0  0  0  0  0  0  0  0  0  0  0  0
   12.3821   49.7191   62.0443 C   0  0  1  0  0  0  0  0  0  0  0  0
   12.9487   48.7948   60.9968 C   0  0  0  0  0  0  0  0  0  0  0  0
   14.3528   49.1284   60.5944 C   0  0  0  0  0  0  0  0  0  0  0  0
   15.0236   49.8496   61.7490 C   0  0  2  0  0  0  0  0  0  0  0  0
   16.4003   49.8006   61.6204 O   0  0  0  0  0  0  0  0  0  0  0  0
   14.5366   49.1592   63.0099 C   0  0  0  0  0  0  0  0  0  0  0  0
   13.1802   49.7322   63.3180 C   0  0  0  0  0  0  0  0  0  0  0  0
  2  1  1  6
  2  3  1  0
  3  4  1  0
  4  5  1  0
  5  6  1  6
  5  7  1  0
  7  8  1  0
  8  2  1  0
M  CHG  1   1   1
M  END
>  <shape_align_shape_tanimoto>  (2) 
0.21796094140250691

>  <shape_align_color_tanimoto>  (2) 
0.13721833359686511

>  <metric>  (2) 
color

>  <metric_score>  (2) 
0.137

>  <template_pid>  (2) 
3RXG

>  <template_shape_score>  (2) 
0.218

>  <template_color_score>  (2) 
0.137

>  <template_combo_score>  (2) 
0.178

$$$$
3RXG_combo_pose
     RDKit          3D

  8  8  0  0  0  0  0  0  0  0999 V2000
   12.1479   51.0292   61.4950 N   0  0  0  0  0  0  0  0  0  0  0  0
   12.3821   49.7191   62.0443 C   0  0  1  0  0  0  0  0  0  0  0  0
   12.9487   48.7948   60.9968 C   0  0  0  0  0  0  0  0  0  0  0  0
   14.3528   49.1284   60.5944 C   0  0  0  0  0  0  0  0  0  0  0  0
   15.0236   49.8496   61.7490 C   0  0  2  0  0  0  0  0  0  0  0  0
   16.4003   49.8006   61.6204 O   0  0  0  0  0  0  0  0  0  0  0  0
   14.5366   49.1592   63.0099 C   0  0  0  0  0  0  0  0  0  0  0  0
   13.1802   49.7322   63.3180 C   0  0  0  0  0  0  0  0  0  0  0  0
  2  1  1  6
  2  3  1  0
  3  4  1  0
  4  5  1  0
  5  6  1  6
  5  7  1  0
  7  8  1  0
  8  2  1  0
M  CHG  1   1   1
M  END
>  <shape_align_shape_tanimoto>  (3) 
0.21796094140250691

>  <shape_align_color_tanimoto>  (3) 
0.13721833359686511

>  <metric>  (3) 
combo

>  <metric_score>  (3) 
0.178

>  <template_pid>  (3) 
3RXG

>  <template_shape_score>  (3) 
0.218

>  <template_color_score>  (3) 
0.137

>  <template_combo_score>  (3) 
0.178

$$$$
