2OK1_shape_pose
     RDKit          3D

 27 30  0  0  0  0  0  0  0  0999 V2000
   12.6235   -9.1849   36.6513 O   0  0  0  0  0  0  0  0  0  0  0  0
   12.0060   -9.4747   37.7039 C   0  0  0  0  0  0  0  0  0  0  0  0
   12.6404   -9.9133   38.8904 N   0  0  0  0  0  0  0  0  0  0  0  0
   14.0747  -10.0778   39.0275 C   0  0  0  0  0  0  0  0  0  0  0  0
   14.7999   -8.7967   39.1905 C   0  0  0  0  0  0  0  0  0  0  0  0
   15.3120   -8.0667   38.1394 C   0  0  0  0  0  0  0  0  0  0  0  0
   15.9774   -6.8695   38.3969 C   0  0  0  0  0  0  0  0  0  0  0  0
   16.1046   -6.4483   39.7036 C   0  0  0  0  0  0  0  0  0  0  0  0
   15.6075   -7.1482   40.7817 C   0  0  0  0  0  0  0  0  0  0  0  0
   14.9506   -8.3349   40.4957 C   0  0  0  0  0  0  0  0  0  0  0  0
   10.5328   -9.3513   37.7055 C   0  0  0  0  0  0  0  0  0  0  0  0
    9.7716   -8.9309   36.6136 C   0  0  0  0  0  0  0  0  0  0  0  0
    8.4568   -8.9620   37.0448 C   0  0  0  0  0  0  0  0  0  0  0  0
    7.2464   -8.6173   36.3004 C   0  0  0  0  0  0  0  0  0  0  0  0
    6.8108   -9.2200   35.1724 N   0  0  0  0  0  0  0  0  0  0  0  0
    5.6764   -8.6373   34.7805 N   0  0  0  0  0  0  0  0  0  0  0  0
    5.3624   -7.6484   35.6510 C   0  0  0  0  0  0  0  0  0  0  0  0
    6.3459   -7.6207   36.6210 C   0  0  0  0  0  0  0  0  0  0  0  0
    6.3886   -6.7011   37.7509 C   0  0  0  0  0  0  0  0  0  0  0  0
    7.4274   -5.7967   37.8950 C   0  0  0  0  0  0  0  0  0  0  0  0
    7.4007   -4.9462   39.0036 C   0  0  0  0  0  0  0  0  0  0  0  0
    6.3592   -5.0164   39.9244 C   0  0  0  0  0  0  0  0  0  0  0  0
    5.3192   -5.9356   39.7628 C   0  0  0  0  0  0  0  0  0  0  0  0
    4.0023   -6.0492   40.8955 Cl  0  0  0  0  0  0  0  0  0  0  0  0
    5.3500   -6.7804   38.6573 C   0  0  0  0  0  0  0  0  0  0  0  0
    8.4159   -9.3888   38.3613 C   0  0  0  0  0  0  0  0  0  0  0  0
    9.6950   -9.6121   38.7176 N   0  0  0  0  0  0  0  0  0  0  0  0
  1  2  2  0
  2  3  1  0
  3  4  1  0
  4  5  1  0
  5  6  2  0
  6  7  1  0
  7  8  2  0
  8  9  1  0
  9 10  2  0
  2 11  1  0
 11 12  2  0
 12 13  1  0
 13 14  1  0
 14 15  1  0
 15 16  1  0
 16 17  2  0
 17 18  1  0
 18 19  1  0
 19 20  2  0
 20 21  1  0
 21 22  2  0
 22 23  1  0
 23 24  1  0
 23 25  2  0
 13 26  2  0
 26 27  1  0
 10  5  1  0
 27 11  1  0
 18 14  2  0
 25 19  1  0
M  END
>  <shape_align_shape_tanimoto>  (1) 
0.58883366462861841

>  <shape_align_color_tanimoto>  (1) 
0.066487870829000165

>  <metric>  (1) 
shape

>  <metric_score>  (1) 
0.589

>  <template_pid>  (1) 
2OK1

>  <template_shape_score>  (1) 
0.589

>  <template_color_score>  (1) 
0.066

>  <template_combo_score>  (1) 
0.328

$$$$
2OK1_color_pose
     RDKit          3D

 27 30  0  0  0  0  0  0  0  0999 V2000
    8.6661  -10.1333   36.6443 O   0  0  0  0  0  0  0  0  0  0  0  0
    8.5890   -9.1192   37.3825 C   0  0  0  0  0  0  0  0  0  0  0  0
    9.5733   -8.7591   38.3340 N   0  0  0  0  0  0  0  0  0  0  0  0
   10.7872   -9.5141   38.5717 C   0  0  0  0  0  0  0  0  0  0  0  0
   11.8142   -9.3096   37.5192 C   0  0  0  0  0  0  0  0  0  0  0  0
   11.9271  -10.1020   36.4001 C   0  0  0  0  0  0  0  0  0  0  0  0
   12.8810   -9.9061   35.4221 C   0  0  0  0  0  0  0  0  0  0  0  0
   13.7841   -8.8710   35.5412 C   0  0  0  0  0  0  0  0  0  0  0  0
   13.7002   -8.0558   36.6515 C   0  0  0  0  0  0  0  0  0  0  0  0
   12.7398   -8.2668   37.6192 C   0  0  0  0  0  0  0  0  0  0  0  0
    7.3895   -8.2817   37.2180 C   0  0  0  0  0  0  0  0  0  0  0  0
    6.3706   -8.5204   36.3174 C   0  0  0  0  0  0  0  0  0  0  0  0
    5.4177   -7.5110   36.4628 C   0  0  0  0  0  0  0  0  0  0  0  0
    4.1950   -7.4340   35.6731 C   0  0  0  0  0  0  0  0  0  0  0  0
    3.2409   -8.4063   35.7497 N   0  0  0  0  0  0  0  0  0  0  0  0
    2.2532   -8.0995   34.9439 N   0  0  0  0  0  0  0  0  0  0  0  0
    2.5185   -6.9403   34.3235 C   0  0  0  0  0  0  0  0  0  0  0  0
    3.7645   -6.4979   34.7811 C   0  0  0  0  0  0  0  0  0  0  0  0
    4.4801   -5.2885   34.4029 C   0  0  0  0  0  0  0  0  0  0  0  0
    4.9594   -5.1559   33.0941 C   0  0  0  0  0  0  0  0  0  0  0  0
    5.6456   -4.0139   32.6930 C   0  0  0  0  0  0  0  0  0  0  0  0
    5.8728   -2.9786   33.5770 C   0  0  0  0  0  0  0  0  0  0  0  0
    5.4084   -3.0926   34.8686 C   0  0  0  0  0  0  0  0  0  0  0  0
    5.6788   -1.7897   36.0306 Cl  0  0  0  0  0  0  0  0  0  0  0  0
    4.7212   -4.2403   35.2638 C   0  0  0  0  0  0  0  0  0  0  0  0
    5.8876   -6.6808   37.4555 C   0  0  0  0  0  0  0  0  0  0  0  0
    7.0836   -7.1483   37.9135 N   0  0  0  0  0  0  0  0  0  0  0  0
  1  2  2  0
  2  3  1  0
  3  4  1  0
  4  5  1  0
  5  6  2  0
  6  7  1  0
  7  8  2  0
  8  9  1  0
  9 10  2  0
  2 11  1  0
 11 12  2  0
 12 13  1  0
 13 14  1  0
 14 15  1  0
 15 16  1  0
 16 17  2  0
 17 18  1  0
 18 19  1  0
 19 20  2  0
 20 21  1  0
 21 22  2  0
 22 23  1  0
 23 24  1  0
 23 25  2  0
 13 26  2  0
 26 27  1  0
 10  5  1  0
 27 11  1  0
 18 14  2  0
 25 19  1  0
M  END
>  <shape_align_shape_tanimoto>  (2) 
0.46210539320527738

>  <shape_align_color_tanimoto>  (2) 
0.13492198429932603

>  <metric>  (2) 
color

>  <metric_score>  (2) 
0.135

>  <template_pid>  (2) 
2OK1

>  <template_shape_score>  (2) 
0.462

>  <template_color_score>  (2) 
0.135

>  <template_combo_score>  (2) 
0.299

$$$$
2OK1_combo_pose
     RDKit          3D

 27 30  0  0  0  0  0  0  0  0999 V2000
    9.1172  -10.1068   38.2703 O   0  0  0  0  0  0  0  0  0  0  0  0
    9.4630   -9.5995   37.1952 C   0  0  0  0  0  0  0  0  0  0  0  0
   10.7999   -9.6146   36.7351 N   0  0  0  0  0  0  0  0  0  0  0  0
   11.9080  -10.1999   37.4269 C   0  0  0  0  0  0  0  0  0  0  0  0
   12.4079   -9.4033   38.5712 C   0  0  0  0  0  0  0  0  0  0  0  0
   13.3793   -8.4495   38.3506 C   0  0  0  0  0  0  0  0  0  0  0  0
   13.9033   -7.6615   39.3680 C   0  0  0  0  0  0  0  0  0  0  0  0
   13.4106   -7.8659   40.6403 C   0  0  0  0  0  0  0  0  0  0  0  0
   12.4454   -8.8112   40.8697 C   0  0  0  0  0  0  0  0  0  0  0  0
   11.9174   -9.6008   39.8627 C   0  0  0  0  0  0  0  0  0  0  0  0
    8.4090   -8.9619   36.3893 C   0  0  0  0  0  0  0  0  0  0  0  0
    7.0789   -8.8771   36.7629 C   0  0  0  0  0  0  0  0  0  0  0  0
    6.4370   -8.2051   35.7261 C   0  0  0  0  0  0  0  0  0  0  0  0
    5.0017   -7.9113   35.7547 C   0  0  0  0  0  0  0  0  0  0  0  0
    4.0251   -8.3440   34.9438 N   0  0  0  0  0  0  0  0  0  0  0  0
    2.8855   -7.8119   35.3545 N   0  0  0  0  0  0  0  0  0  0  0  0
    3.1075   -7.0310   36.4319 C   0  0  0  0  0  0  0  0  0  0  0  0
    4.4560   -7.0633   36.7280 C   0  0  0  0  0  0  0  0  0  0  0  0
    5.1866   -6.3899   37.7955 C   0  0  0  0  0  0  0  0  0  0  0  0
    6.2031   -5.4860   37.4661 C   0  0  0  0  0  0  0  0  0  0  0  0
    6.9244   -4.8209   38.4165 C   0  0  0  0  0  0  0  0  0  0  0  0
    6.6783   -5.0146   39.7561 C   0  0  0  0  0  0  0  0  0  0  0  0
    5.6760   -5.9057   40.0922 C   0  0  0  0  0  0  0  0  0  0  0  0
    5.3332   -6.1777   41.8088 Cl  0  0  0  0  0  0  0  0  0  0  0  0
    4.9357   -6.5880   39.1332 C   0  0  0  0  0  0  0  0  0  0  0  0
    7.3656   -7.8955   34.7529 C   0  0  0  0  0  0  0  0  0  0  0  0
    8.5497   -8.3785   35.2064 N   0  0  0  0  0  0  0  0  0  0  0  0
  1  2  2  0
  2  3  1  0
  3  4  1  0
  4  5  1  0
  5  6  2  0
  6  7  1  0
  7  8  2  0
  8  9  1  0
  9 10  2  0
  2 11  1  0
 11 12  2  0
 12 13  1  0
 13 14  1  0
 14 15  1  0
 15 16  1  0
 16 17  2  0
 17 18  1  0
 18 19  1  0
 19 20  2  0
 20 21  1  0
 21 22  2  0
 22 23  1  0
 23 24  1  0
 23 25  2  0
 13 26  2  0
 26 27  1  0
 10  5  1  0
 27 11  1  0
 18 14  2  0
 25 19  1  0
M  END
>  <shape_align_shape_tanimoto>  (3) 
0.58089057747339023

>  <shape_align_color_tanimoto>  (3) 
0.084886528275171833

>  <metric>  (3) 
combo

>  <metric_score>  (3) 
0.333

>  <template_pid>  (3) 
2OK1

>  <template_shape_score>  (3) 
0.581

>  <template_color_score>  (3) 
0.085

>  <template_combo_score>  (3) 
0.333

$$$$
