6UIM_shape_pose
     RDKit          3D

 14 13  0  0  0  0  0  0  0  0999 V2000
    1.8221   80.6100   81.2036 N   0  0  0  0  0  0  0  0  0  0  0  0
    3.0821   79.9705   81.3049 C   0  0  0  0  0  0  0  0  0  0  0  0
    3.5747   79.3132   80.0764 C   0  0  0  0  0  0  0  0  0  0  0  0
    2.7740   78.1899   79.5227 C   0  0  0  0  0  0  0  0  0  0  0  0
    1.4597   78.4137   79.0603 N   0  0  0  0  0  0  0  0  0  0  0  0
    0.4166   77.6850   79.7584 C   0  0  0  0  0  0  0  0  0  0  0  0
   -0.3660   76.7770   78.8448 C   0  0  0  0  0  0  0  0  0  0  0  0
    0.4593   75.7262   78.1627 C   0  0  0  0  0  0  0  0  0  0  0  0
    1.1515   74.7944   79.0914 C   0  0  0  0  0  0  0  0  0  0  0  0
    0.2298   74.0057   79.9699 C   0  0  0  0  0  0  0  0  0  0  0  0
    1.0214   73.1332   80.8803 C   0  0  0  0  0  0  0  0  0  0  0  0
    1.9374   73.6625   81.5125 O   0  0  0  0  0  0  0  0  0  0  0  0
    0.7232   71.6704   81.0293 C   0  0  0  0  0  0  0  0  0  0  0  0
    1.8470   70.9692   82.2758 S   0  0  0  0  0  0  0  0  0  0  0  0
  1  2  1  0
  2  3  1  0
  3  4  1  0
  4  5  1  0
  5  6  1  0
  6  7  1  0
  7  8  1  0
  8  9  1  0
  9 10  1  0
 10 11  1  0
 11 12  2  0
 11 13  1  0
 13 14  1  0
M  CHG  2   1   1   5   1
M  END
>  <shape_align_shape_tanimoto>  (1) 
0.63299475960764562

>  <shape_align_color_tanimoto>  (1) 
2.0665848165089689e-05

>  <metric>  (1) 
shape

>  <metric_score>  (1) 
0.633

>  <template_pid>  (1) 
6UIM

>  <template_shape_score>  (1) 
0.633

>  <template_color_score>  (1) 
0.000

>  <template_combo_score>  (1) 
0.317

$$$$
6UIM_color_pose
     RDKit          3D

 14 13  0  0  0  0  0  0  0  0999 V2000
   -0.1370   73.1157   82.4361 N   0  0  0  0  0  0  0  0  0  0  0  0
    1.1002   72.4262   82.1837 C   0  0  0  0  0  0  0  0  0  0  0  0
    1.9042   73.0617   81.1001 C   0  0  0  0  0  0  0  0  0  0  0  0
    1.3407   73.1247   79.7438 C   0  0  0  0  0  0  0  0  0  0  0  0
    0.1483   73.8303   79.4827 N   0  0  0  0  0  0  0  0  0  0  0  0
    0.1764   74.5513   78.2077 C   0  0  0  0  0  0  0  0  0  0  0  0
   -0.6325   75.8036   78.2538 C   0  0  0  0  0  0  0  0  0  0  0  0
   -0.2215   76.8205   79.2547 C   0  0  0  0  0  0  0  0  0  0  0  0
    1.1827   77.3285   79.0792 C   0  0  0  0  0  0  0  0  0  0  0  0
    1.3934   78.3506   80.2010 C   0  0  0  0  0  0  0  0  0  0  0  0
    2.7351   78.9564   80.1794 C   0  0  0  0  0  0  0  0  0  0  0  0
    3.0705   79.7961   81.0096 O   0  0  0  0  0  0  0  0  0  0  0  0
    3.7720   78.6005   79.1624 C   0  0  0  0  0  0  0  0  0  0  0  0
    3.5501   79.7431   77.7568 S   0  0  0  0  0  0  0  0  0  0  0  0
  1  2  1  0
  2  3  1  0
  3  4  1  0
  4  5  1  0
  5  6  1  0
  6  7  1  0
  7  8  1  0
  8  9  1  0
  9 10  1  0
 10 11  1  0
 11 12  2  0
 11 13  1  0
 13 14  1  0
M  CHG  2   1   1   5   1
M  END
>  <shape_align_shape_tanimoto>  (2) 
0.52203977548505742

>  <shape_align_color_tanimoto>  (2) 
0.089867995530445888

>  <metric>  (2) 
color

>  <metric_score>  (2) 
0.090

>  <template_pid>  (2) 
6UIM

>  <template_shape_score>  (2) 
0.522

>  <template_color_score>  (2) 
0.090

>  <template_combo_score>  (2) 
0.306

$$$$
6UIM_combo_pose
     RDKit          3D

 14 13  0  0  0  0  0  0  0  0999 V2000
    3.4343   71.7740   82.0032 N   0  0  0  0  0  0  0  0  0  0  0  0
    2.0760   72.3428   82.0313 C   0  0  0  0  0  0  0  0  0  0  0  0
    1.2775   71.8385   80.8742 C   0  0  0  0  0  0  0  0  0  0  0  0
   -0.1133   72.3395   80.7889 C   0  0  0  0  0  0  0  0  0  0  0  0
   -0.2893   73.7409   80.6727 N   0  0  0  0  0  0  0  0  0  0  0  0
    0.5521   74.4262   79.7492 C   0  0  0  0  0  0  0  0  0  0  0  0
   -0.2135   75.2859   78.7605 C   0  0  0  0  0  0  0  0  0  0  0  0
    0.7927   75.9419   77.8578 C   0  0  0  0  0  0  0  0  0  0  0  0
    1.7706   76.8113   78.5848 C   0  0  0  0  0  0  0  0  0  0  0  0
    1.1037   77.9394   79.3359 C   0  0  0  0  0  0  0  0  0  0  0  0
    2.0886   78.7881   80.0488 C   0  0  0  0  0  0  0  0  0  0  0  0
    3.2800   78.5318   79.9816 O   0  0  0  0  0  0  0  0  0  0  0  0
    1.5562   79.9408   80.8311 C   0  0  0  0  0  0  0  0  0  0  0  0
    2.8992   80.8575   81.6292 S   0  0  0  0  0  0  0  0  0  0  0  0
  1  2  1  0
  2  3  1  0
  3  4  1  0
  4  5  1  0
  5  6  1  0
  6  7  1  0
  7  8  1  0
  8  9  1  0
  9 10  1  0
 10 11  1  0
 11 12  2  0
 11 13  1  0
 13 14  1  0
M  CHG  2   1   1   5   1
M  END
>  <shape_align_shape_tanimoto>  (3) 
0.61394814600447778

>  <shape_align_color_tanimoto>  (3) 
0.04822447203979071

>  <metric>  (3) 
combo

>  <metric_score>  (3) 
0.331

>  <template_pid>  (3) 
6UIM

>  <template_shape_score>  (3) 
0.614

>  <template_color_score>  (3) 
0.048

>  <template_combo_score>  (3) 
0.331

$$$$
