5Y8Z_shape_pose
     RDKit          3D

 24 26  0  0  0  0  0  0  0  0999 V2000
    8.6904   -5.9295   -4.8264 C   0  0  0  0  0  0  0  0  0  0  0  0
    9.0084   -7.1638   -4.2116 O   0  0  0  0  0  0  0  0  0  0  0  0
    9.4920   -8.2460   -4.9113 C   0  0  0  0  0  0  0  0  0  0  0  0
    9.6690   -8.1013   -6.2798 C   0  0  0  0  0  0  0  0  0  0  0  0
   10.1511   -9.1511   -7.0368 C   0  0  0  0  0  0  0  0  0  0  0  0
   10.4478  -10.3370   -6.3931 C   0  0  0  0  0  0  0  0  0  0  0  0
   11.1168  -11.8048   -7.4209 Br  0  0  0  0  0  0  0  0  0  0  0  0
   10.2629  -10.4616   -5.0176 C   0  0  0  0  0  0  0  0  0  0  0  0
    9.7856   -9.4301   -4.2521 C   0  0  0  0  0  0  0  0  0  0  0  0
    9.4757   -9.4984   -2.5487 S   0  0  0  0  0  0  0  0  0  0  0  0
    7.9398   -9.2259   -2.4230 O   0  0  0  0  0  0  0  0  0  0  0  0
    9.5801  -10.8897   -1.9783 O   0  0  0  0  0  0  0  0  0  0  0  0
   10.2308   -8.2897   -1.6683 N   0  0  0  0  0  0  0  0  0  0  0  0
   11.5478   -7.9119   -1.4301 C   0  0  0  0  0  0  0  0  0  0  0  0
   11.7631   -6.8358   -0.5375 C   0  0  0  0  0  0  0  0  0  0  0  0
   13.0136   -6.3682   -0.2228 C   0  0  0  0  0  0  0  0  0  0  0  0
   13.4366   -5.3398    0.6163 C   0  0  0  0  0  0  0  0  0  0  0  0
   12.5542   -4.4424    1.4278 C   0  0  0  0  0  0  0  0  0  0  0  0
   14.7792   -5.3432    0.5284 N   0  0  0  0  0  0  0  0  0  0  0  0
   15.1724   -6.2789   -0.2844 O   0  0  0  0  0  0  0  0  0  0  0  0
   14.1414   -6.9269   -0.7648 C   0  0  0  0  0  0  0  0  0  0  0  0
   13.9735   -7.9718   -1.6339 C   0  0  0  0  0  0  0  0  0  0  0  0
   12.6893   -8.4470   -1.9527 C   0  0  0  0  0  0  0  0  0  0  0  0
   12.6768   -9.5823   -2.9008 C   0  0  0  0  0  0  0  0  0  0  0  0
  1  2  1  0
  2  3  1  0
  3  4  2  0
  4  5  1  0
  5  6  2  0
  6  7  1  0
  6  8  1  0
  8  9  2  0
  9 10  1  0
 10 11  2  0
 10 12  2  0
 10 13  1  0
 13 14  1  0
 14 15  2  0
 15 16  1  0
 16 17  1  0
 17 18  1  0
 17 19  2  0
 19 20  1  0
 20 21  1  0
 21 22  1  0
 22 23  2  0
 23 24  1  0
  9  3  1  0
 23 14  1  0
 21 16  2  0
M  END
>  <shape_align_shape_tanimoto>  (1) 
0.83616945298906808

>  <shape_align_color_tanimoto>  (1) 
0.10334850599506303

>  <metric>  (1) 
shape

>  <metric_score>  (1) 
0.836

>  <template_pid>  (1) 
5Y8Z

>  <template_shape_score>  (1) 
0.836

>  <template_color_score>  (1) 
0.103

>  <template_combo_score>  (1) 
0.470

$$$$
5Y8Z_color_pose
     RDKit          3D

 24 26  0  0  0  0  0  0  0  0999 V2000
   11.1179  -10.9789   -6.5408 C   0  0  0  0  0  0  0  0  0  0  0  0
   10.4717  -10.4063   -5.4318 O   0  0  0  0  0  0  0  0  0  0  0  0
    9.9623   -9.1157   -5.4194 C   0  0  0  0  0  0  0  0  0  0  0  0
   10.0764   -8.3173   -6.5388 C   0  0  0  0  0  0  0  0  0  0  0  0
    9.5527   -7.0273   -6.4881 C   0  0  0  0  0  0  0  0  0  0  0  0
    8.9415   -6.5740   -5.3487 C   0  0  0  0  0  0  0  0  0  0  0  0
    8.2377   -4.8064   -5.3156 Br  0  0  0  0  0  0  0  0  0  0  0  0
    8.8421   -7.3919   -4.2478 C   0  0  0  0  0  0  0  0  0  0  0  0
    9.3426   -8.6689   -4.2508 C   0  0  0  0  0  0  0  0  0  0  0  0
    9.2419   -9.7512   -2.8803 S   0  0  0  0  0  0  0  0  0  0  0  0
    8.4081  -10.9601   -3.1998 O   0  0  0  0  0  0  0  0  0  0  0  0
    8.4643   -9.0209   -1.8048 O   0  0  0  0  0  0  0  0  0  0  0  0
   10.7795  -10.2572   -2.3174 N   0  0  0  0  0  0  0  0  0  0  0  0
   11.7720   -9.3895   -1.8136 C   0  0  0  0  0  0  0  0  0  0  0  0
   11.5666   -8.0278   -1.6876 C   0  0  0  0  0  0  0  0  0  0  0  0
   12.5234   -7.1634   -1.1967 C   0  0  0  0  0  0  0  0  0  0  0  0
   12.5495   -5.7967   -0.9824 C   0  0  0  0  0  0  0  0  0  0  0  0
   11.4337   -4.8333   -1.2600 C   0  0  0  0  0  0  0  0  0  0  0  0
   13.7738   -5.5018   -0.4756 N   0  0  0  0  0  0  0  0  0  0  0  0
   14.4737   -6.6154   -0.3776 O   0  0  0  0  0  0  0  0  0  0  0  0
   13.7548   -7.6227   -0.8000 C   0  0  0  0  0  0  0  0  0  0  0  0
   13.9907   -8.9773   -0.9135 C   0  0  0  0  0  0  0  0  0  0  0  0
   13.0329   -9.8406   -1.4046 C   0  0  0  0  0  0  0  0  0  0  0  0
   13.2801  -11.3015   -1.5296 C   0  0  0  0  0  0  0  0  0  0  0  0
  1  2  1  0
  2  3  1  0
  3  4  2  0
  4  5  1  0
  5  6  2  0
  6  7  1  0
  6  8  1  0
  8  9  2  0
  9 10  1  0
 10 11  2  0
 10 12  2  0
 10 13  1  0
 13 14  1  0
 14 15  2  0
 15 16  1  0
 16 17  1  0
 17 18  1  0
 17 19  2  0
 19 20  1  0
 20 21  1  0
 21 22  1  0
 22 23  2  0
 23 24  1  0
  9  3  1  0
 23 14  1  0
 21 16  2  0
M  END
>  <shape_align_shape_tanimoto>  (2) 
0.71527454685966274

>  <shape_align_color_tanimoto>  (2) 
0.40198311525017927

>  <metric>  (2) 
color

>  <metric_score>  (2) 
0.402

>  <template_pid>  (2) 
5Y8Z

>  <template_shape_score>  (2) 
0.715

>  <template_color_score>  (2) 
0.402

>  <template_combo_score>  (2) 
0.559

$$$$
5Y8Z_combo_pose
     RDKit          3D

 24 26  0  0  0  0  0  0  0  0999 V2000
   11.0680  -11.0178   -6.5268 C   0  0  0  0  0  0  0  0  0  0  0  0
   10.4231  -10.4507   -5.4261 O   0  0  0  0  0  0  0  0  0  0  0  0
    9.9280   -9.1494   -5.3685 C   0  0  0  0  0  0  0  0  0  0  0  0
   10.0734   -8.3277   -6.4803 C   0  0  0  0  0  0  0  0  0  0  0  0
    9.5744   -7.0348   -6.4054 C   0  0  0  0  0  0  0  0  0  0  0  0
    8.9517   -6.5751   -5.2626 C   0  0  0  0  0  0  0  0  0  0  0  0
    8.2911   -4.7794   -5.2397 Br  0  0  0  0  0  0  0  0  0  0  0  0
    8.8062   -7.3930   -4.1539 C   0  0  0  0  0  0  0  0  0  0  0  0
    9.2971   -8.6807   -4.2134 C   0  0  0  0  0  0  0  0  0  0  0  0
    9.1733   -9.8118   -2.8837 S   0  0  0  0  0  0  0  0  0  0  0  0
    8.3144  -10.9749   -3.2078 O   0  0  0  0  0  0  0  0  0  0  0  0
    8.5444   -9.0744   -1.7211 O   0  0  0  0  0  0  0  0  0  0  0  0
   10.7496  -10.2872   -2.4248 N   0  0  0  0  0  0  0  0  0  0  0  0
   11.7450   -9.4003   -1.9361 C   0  0  0  0  0  0  0  0  0  0  0  0
   11.5185   -8.0625   -1.6939 C   0  0  0  0  0  0  0  0  0  0  0  0
   12.5024   -7.2081   -1.2137 C   0  0  0  0  0  0  0  0  0  0  0  0
   12.5103   -5.8630   -0.9022 C   0  0  0  0  0  0  0  0  0  0  0  0
   11.3341   -4.9486   -1.0313 C   0  0  0  0  0  0  0  0  0  0  0  0
   13.7517   -5.5751   -0.4780 N   0  0  0  0  0  0  0  0  0  0  0  0
   14.4777   -6.6565   -0.5171 O   0  0  0  0  0  0  0  0  0  0  0  0
   13.7720   -7.6787   -0.9556 C   0  0  0  0  0  0  0  0  0  0  0  0
   14.0242   -9.0135   -1.1897 C   0  0  0  0  0  0  0  0  0  0  0  0
   13.0403   -9.8510   -1.6660 C   0  0  0  0  0  0  0  0  0  0  0  0
   13.3513  -11.2713   -1.9027 C   0  0  0  0  0  0  0  0  0  0  0  0
  1  2  1  0
  2  3  1  0
  3  4  2  0
  4  5  1  0
  5  6  2  0
  6  7  1  0
  6  8  1  0
  8  9  2  0
  9 10  1  0
 10 11  2  0
 10 12  2  0
 10 13  1  0
 13 14  1  0
 14 15  2  0
 15 16  1  0
 16 17  1  0
 17 18  1  0
 17 19  2  0
 19 20  1  0
 20 21  1  0
 21 22  1  0
 22 23  2  0
 23 24  1  0
  9  3  1  0
 23 14  1  0
 21 16  2  0
M  END
>  <shape_align_shape_tanimoto>  (3) 
0.73284175286561704

>  <shape_align_color_tanimoto>  (3) 
0.39839977246650476

>  <metric>  (3) 
combo

>  <metric_score>  (3) 
0.566

>  <template_pid>  (3) 
5Y8Z

>  <template_shape_score>  (3) 
0.733

>  <template_color_score>  (3) 
0.398

>  <template_combo_score>  (3) 
0.566

$$$$
