5U4G_shape_pose
     RDKit          3D

 20 21  0  0  0  0  0  0  0  0999 V2000
   -4.1551   -0.4726   -2.6777 O   0  0  0  0  0  0  0  0  0  0  0  0
   -2.7789    0.3920   -2.1200 B   0  0  0  0  0  0  0  0  0  0  0  0
   -1.6504    1.5771   -1.4419 C   0  0  0  0  0  0  0  0  0  0  0  0
   -1.3160    2.7275   -2.1268 C   0  0  0  0  0  0  0  0  0  0  0  0
   -0.4271    3.6303   -1.5585 C   0  0  0  0  0  0  0  0  0  0  0  0
    0.1485    3.4308   -0.3212 C   0  0  0  0  0  0  0  0  0  0  0  0
    1.0841    4.3691    0.2901 C   0  0  0  0  0  0  0  0  0  0  0  0
    1.4749    5.4937   -0.2667 C   0  0  0  0  0  0  0  0  0  0  0  0
    2.4082    6.4322    0.3404 C   0  0  0  0  0  0  0  0  0  0  0  0
    2.9876    6.2389    1.5775 C   0  0  0  0  0  0  0  0  0  0  0  0
    3.8744    7.1417    2.1423 C   0  0  0  0  0  0  0  0  0  0  0  0
    4.2126    8.2942    1.4616 C   0  0  0  0  0  0  0  0  0  0  0  0
    3.6489    8.5152    0.2212 C   0  0  0  0  0  0  0  0  0  0  0  0
    3.9844    9.8053   -0.6170 B   0  0  0  0  0  0  0  0  0  0  0  0
    5.1908    9.8748   -1.4346 O   0  0  0  0  0  0  0  0  0  0  0  0
    2.8566   10.6299   -1.0459 O   0  0  0  0  0  0  0  0  0  0  0  0
    2.7693    7.6026   -0.3199 C   0  0  0  0  0  0  0  0  0  0  0  0
   -0.2119    2.2632    0.3370 C   0  0  0  0  0  0  0  0  0  0  0  0
    0.4496    1.8849    1.9243 Cl  0  0  0  0  0  0  0  0  0  0  0  0
   -1.0926    1.3463   -0.2012 C   0  0  0  0  0  0  0  0  0  0  0  0
  1  2  1  0
  2  3  1  0
  3  4  2  0
  4  5  1  0
  5  6  2  0
  6  7  1  0
  7  8  2  0
  8  9  1  0
  9 10  2  0
 10 11  1  0
 11 12  2  0
 12 13  1  0
 13 14  1  0
 14 15  1  0
 14 16  1  0
 13 17  2  0
  6 18  1  0
 18 19  1  0
 18 20  2  0
 20  3  1  0
 17  9  1  0
M  CHG  1   2   1
M  END
>  <shape_align_shape_tanimoto>  (1) 
0.23428305346807804

>  <shape_align_color_tanimoto>  (1) 
0.014087829188121466

>  <metric>  (1) 
shape

>  <metric_score>  (1) 
0.234

>  <template_pid>  (1) 
5U4G

>  <template_shape_score>  (1) 
0.234

>  <template_color_score>  (1) 
0.014

>  <template_combo_score>  (1) 
0.124

$$$$
5U4G_color_pose
     RDKit          3D

 20 21  0  0  0  0  0  0  0  0999 V2000
    7.4518   10.2022   -2.3062 O   0  0  0  0  0  0  0  0  0  0  0  0
    5.8184   10.3438   -1.7467 B   0  0  0  0  0  0  0  0  0  0  0  0
    4.1158   10.7699   -1.6025 C   0  0  0  0  0  0  0  0  0  0  0  0
    3.7071   11.8376   -0.8303 C   0  0  0  0  0  0  0  0  0  0  0  0
    2.3554   12.1569   -0.7303 C   0  0  0  0  0  0  0  0  0  0  0  0
    1.3766   11.4365   -1.3849 C   0  0  0  0  0  0  0  0  0  0  0  0
   -0.0448   11.7549   -1.2930 C   0  0  0  0  0  0  0  0  0  0  0  0
   -0.5512   12.7300   -0.6019 C   0  0  0  0  0  0  0  0  0  0  0  0
   -1.9672   13.0587   -0.5015 C   0  0  0  0  0  0  0  0  0  0  0  0
   -2.4291   14.1181    0.2587 C   0  0  0  0  0  0  0  0  0  0  0  0
   -3.7404   14.4614    0.3813 C   0  0  0  0  0  0  0  0  0  0  0  0
   -4.7000   13.7230   -0.2851 C   0  0  0  0  0  0  0  0  0  0  0  0
   -4.2901   12.6550   -1.0575 C   0  0  0  0  0  0  0  0  0  0  0  0
   -5.3612   11.7934   -1.8299 B   0  0  0  0  0  0  0  0  0  0  0  0
   -5.3529   10.3206   -1.6852 O   0  0  0  0  0  0  0  0  0  0  0  0
   -5.7200   12.2758   -3.1753 O   0  0  0  0  0  0  0  0  0  0  0  0
   -2.9511   12.3274   -1.1651 C   0  0  0  0  0  0  0  0  0  0  0  0
    1.8203   10.3688   -2.1533 C   0  0  0  0  0  0  0  0  0  0  0  0
    0.6441    9.4117   -3.0098 Cl  0  0  0  0  0  0  0  0  0  0  0  0
    3.1545   10.0355   -2.2659 C   0  0  0  0  0  0  0  0  0  0  0  0
  1  2  1  0
  2  3  1  0
  3  4  2  0
  4  5  1  0
  5  6  2  0
  6  7  1  0
  7  8  2  0
  8  9  1  0
  9 10  2  0
 10 11  1  0
 11 12  2  0
 12 13  1  0
 13 14  1  0
 14 15  1  0
 14 16  1  0
 13 17  2  0
  6 18  1  0
 18 19  1  0
 18 20  2  0
 20  3  1  0
 17  9  1  0
M  CHG  1   2   1
M  END
>  <shape_align_shape_tanimoto>  (2) 
0.18442199410631607

>  <shape_align_color_tanimoto>  (2) 
0.041893668593836975

>  <metric>  (2) 
color

>  <metric_score>  (2) 
0.042

>  <template_pid>  (2) 
5U4G

>  <template_shape_score>  (2) 
0.184

>  <template_color_score>  (2) 
0.042

>  <template_combo_score>  (2) 
0.113

$$$$
5U4G_combo_pose
     RDKit          3D

 20 21  0  0  0  0  0  0  0  0999 V2000
   -4.1551   -0.4726   -2.6777 O   0  0  0  0  0  0  0  0  0  0  0  0
   -2.7789    0.3920   -2.1200 B   0  0  0  0  0  0  0  0  0  0  0  0
   -1.6504    1.5771   -1.4419 C   0  0  0  0  0  0  0  0  0  0  0  0
   -1.3160    2.7275   -2.1268 C   0  0  0  0  0  0  0  0  0  0  0  0
   -0.4271    3.6303   -1.5585 C   0  0  0  0  0  0  0  0  0  0  0  0
    0.1485    3.4308   -0.3212 C   0  0  0  0  0  0  0  0  0  0  0  0
    1.0841    4.3691    0.2901 C   0  0  0  0  0  0  0  0  0  0  0  0
    1.4749    5.4937   -0.2667 C   0  0  0  0  0  0  0  0  0  0  0  0
    2.4082    6.4322    0.3404 C   0  0  0  0  0  0  0  0  0  0  0  0
    2.9876    6.2389    1.5775 C   0  0  0  0  0  0  0  0  0  0  0  0
    3.8744    7.1417    2.1423 C   0  0  0  0  0  0  0  0  0  0  0  0
    4.2126    8.2942    1.4616 C   0  0  0  0  0  0  0  0  0  0  0  0
    3.6489    8.5152    0.2212 C   0  0  0  0  0  0  0  0  0  0  0  0
    3.9844    9.8053   -0.6170 B   0  0  0  0  0  0  0  0  0  0  0  0
    5.1908    9.8748   -1.4346 O   0  0  0  0  0  0  0  0  0  0  0  0
    2.8566   10.6299   -1.0459 O   0  0  0  0  0  0  0  0  0  0  0  0
    2.7693    7.6026   -0.3199 C   0  0  0  0  0  0  0  0  0  0  0  0
   -0.2119    2.2632    0.3370 C   0  0  0  0  0  0  0  0  0  0  0  0
    0.4496    1.8849    1.9243 Cl  0  0  0  0  0  0  0  0  0  0  0  0
   -1.0926    1.3463   -0.2012 C   0  0  0  0  0  0  0  0  0  0  0  0
  1  2  1  0
  2  3  1  0
  3  4  2  0
  4  5  1  0
  5  6  2  0
  6  7  1  0
  7  8  2  0
  8  9  1  0
  9 10  2  0
 10 11  1  0
 11 12  2  0
 12 13  1  0
 13 14  1  0
 14 15  1  0
 14 16  1  0
 13 17  2  0
  6 18  1  0
 18 19  1  0
 18 20  2  0
 20  3  1  0
 17  9  1  0
M  CHG  1   2   1
M  END
>  <shape_align_shape_tanimoto>  (3) 
0.23428305346807804

>  <shape_align_color_tanimoto>  (3) 
0.014087829188121466

>  <metric>  (3) 
combo

>  <metric_score>  (3) 
0.124

>  <template_pid>  (3) 
5U4G

>  <template_shape_score>  (3) 
0.234

>  <template_color_score>  (3) 
0.014

>  <template_combo_score>  (3) 
0.124

$$$$
