3CHQ_shape_pose
     RDKit          3D

 24 25  0  0  0  0  0  0  0  0999 V2000
   10.0717    9.4366   19.1238 N   0  0  0  0  0  0  0  0  0  0  0  0
   11.2724   10.1443   19.4558 C   0  0  1  0  0  0  0  0  0  0  0  0
   12.3034    9.9880   18.3398 C   0  0  0  0  0  0  0  0  0  0  0  0
   11.6921   10.5576   17.0872 C   0  0  0  0  0  0  0  0  0  0  0  0
   12.6074   10.4622   15.9226 C   0  0  0  0  0  0  0  0  0  0  0  0
   13.7287    9.9393   16.1260 O   0  0  0  0  0  0  0  0  0  0  0  0
   12.2029   10.9461   14.6637 N   0  0  0  0  0  0  0  0  0  0  0  0
   12.9620   10.9227   13.4740 C   0  0  0  0  0  0  0  0  0  0  0  0
   12.3814   11.4503   12.3366 C   0  0  0  0  0  0  0  0  0  0  0  0
   13.0418   11.4726   11.1301 C   0  0  0  0  0  0  0  0  0  0  0  0
   14.3439   10.9595   10.9888 C   0  0  0  0  0  0  0  0  0  0  0  0
   14.8952   11.0347    9.7572 O   0  0  0  0  0  0  0  0  0  0  0  0
   16.0762   10.6731    9.1871 C   0  0  0  0  0  0  0  0  0  0  0  0
   16.4919    9.2829    9.1612 C   0  0  0  0  0  0  0  0  0  0  0  0
   16.0105    8.4789    8.1174 C   0  0  0  0  0  0  0  0  0  0  0  0
   16.3618    7.1555    7.9965 C   0  0  0  0  0  0  0  0  0  0  0  0
   17.2090    6.5640    8.9063 C   0  0  0  0  0  0  0  0  0  0  0  0
   17.7002    7.3268    9.9444 C   0  0  0  0  0  0  0  0  0  0  0  0
   17.3348    8.6533   10.0467 C   0  0  0  0  0  0  0  0  0  0  0  0
   14.8978   10.4423   12.1308 C   0  0  0  0  0  0  0  0  0  0  0  0
   14.2305   10.4207   13.3457 C   0  0  0  0  0  0  0  0  0  0  0  0
   10.9530   11.5979   19.5085 C   0  0  0  0  0  0  0  0  0  0  0  0
   11.7975   12.3824   20.0369 O   0  0  0  0  0  0  0  0  0  0  0  0
    9.7466   12.0833   18.9852 O   0  0  0  0  0  0  0  0  0  0  0  0
  2  1  1  6
  2  3  1  0
  3  4  1  0
  4  5  1  0
  5  6  2  0
  5  7  1  0
  7  8  1  0
  8  9  2  0
  9 10  1  0
 10 11  2  0
 11 12  1  0
 12 13  1  0
 13 14  1  0
 14 15  2  0
 15 16  1  0
 16 17  2  0
 17 18  1  0
 18 19  2  0
 11 20  1  0
 20 21  2  0
  2 22  1  0
 22 23  2  0
 22 24  1  0
 21  8  1  0
 19 14  1  0
M  CHG  2   1   1  24  -1
M  END
>  <shape_align_shape_tanimoto>  (1) 
0.67583783883386361

>  <shape_align_color_tanimoto>  (1) 
0.0097705379626975165

>  <metric>  (1) 
shape

>  <metric_score>  (1) 
0.676

>  <template_pid>  (1) 
3CHQ

>  <template_shape_score>  (1) 
0.676

>  <template_color_score>  (1) 
0.010

>  <template_combo_score>  (1) 
0.343

$$$$
3CHQ_color_pose
     RDKit          3D

 24 25  0  0  0  0  0  0  0  0999 V2000
   15.4951   10.0927    7.5862 N   0  0  0  0  0  0  0  0  0  0  0  0
   16.8745    9.7992    7.6784 C   0  0  1  0  0  0  0  0  0  0  0  0
   17.3758    8.9680    8.8048 C   0  0  0  0  0  0  0  0  0  0  0  0
   17.1988    9.4119   10.1755 C   0  0  0  0  0  0  0  0  0  0  0  0
   15.8945    9.5661   10.7798 C   0  0  0  0  0  0  0  0  0  0  0  0
   14.8769    9.1322   10.2025 O   0  0  0  0  0  0  0  0  0  0  0  0
   15.7793   10.2125   12.0296 N   0  0  0  0  0  0  0  0  0  0  0  0
   14.6014   10.4488   12.7559 C   0  0  0  0  0  0  0  0  0  0  0  0
   14.7311   11.1118   13.9747 C   0  0  0  0  0  0  0  0  0  0  0  0
   13.6370   11.3900   14.7581 C   0  0  0  0  0  0  0  0  0  0  0  0
   12.3574   11.0420   14.4062 C   0  0  0  0  0  0  0  0  0  0  0  0
   11.2220   11.2575   15.0848 O   0  0  0  0  0  0  0  0  0  0  0  0
   10.8871   11.8352   16.2814 C   0  0  0  0  0  0  0  0  0  0  0  0
   11.4459   11.2073   17.4909 C   0  0  0  0  0  0  0  0  0  0  0  0
   10.7768   10.1022   17.9942 C   0  0  0  0  0  0  0  0  0  0  0  0
   11.1873    9.4457   19.1369 C   0  0  0  0  0  0  0  0  0  0  0  0
   12.2963    9.8757   19.8273 C   0  0  0  0  0  0  0  0  0  0  0  0
   12.9678   10.9680   19.3410 C   0  0  0  0  0  0  0  0  0  0  0  0
   12.5480   11.6279   18.1851 C   0  0  0  0  0  0  0  0  0  0  0  0
   12.2399   10.3738   13.1744 C   0  0  0  0  0  0  0  0  0  0  0  0
   13.3325   10.0941   12.3882 C   0  0  0  0  0  0  0  0  0  0  0  0
   17.2483    9.0991    6.3953 C   0  0  0  0  0  0  0  0  0  0  0  0
   18.4646    9.0861    6.0280 O   0  0  0  0  0  0  0  0  0  0  0  0
   16.2954    8.4692    5.6071 O   0  0  0  0  0  0  0  0  0  0  0  0
  2  1  1  1
  2  3  1  0
  3  4  1  0
  4  5  1  0
  5  6  2  0
  5  7  1  0
  7  8  1  0
  8  9  2  0
  9 10  1  0
 10 11  2  0
 11 12  1  0
 12 13  1  0
 13 14  1  0
 14 15  2  0
 15 16  1  0
 16 17  2  0
 17 18  1  0
 18 19  2  0
 11 20  1  0
 20 21  2  0
  2 22  1  0
 22 23  2  0
 22 24  1  0
 21  8  1  0
 19 14  1  0
M  CHG  2   1   1  24  -1
M  END
>  <shape_align_shape_tanimoto>  (2) 
0.54799113094517271

>  <shape_align_color_tanimoto>  (2) 
0.073499726231596993

>  <metric>  (2) 
color

>  <metric_score>  (2) 
0.073

>  <template_pid>  (2) 
3CHQ

>  <template_shape_score>  (2) 
0.548

>  <template_color_score>  (2) 
0.073

>  <template_combo_score>  (2) 
0.311

$$$$
3CHQ_combo_pose
     RDKit          3D

 24 25  0  0  0  0  0  0  0  0999 V2000
   18.3682    8.1230    8.4297 N   0  0  0  0  0  0  0  0  0  0  0  0
   17.5324    9.1994    9.0676 C   0  0  1  0  0  0  0  0  0  0  0  0
   16.1841    9.0168    8.5210 C   0  0  0  0  0  0  0  0  0  0  0  0
   15.0875    9.9208    8.9837 C   0  0  0  0  0  0  0  0  0  0  0  0
   14.7309    9.7394   10.4072 C   0  0  0  0  0  0  0  0  0  0  0  0
   15.1268    8.7270   11.0089 O   0  0  0  0  0  0  0  0  0  0  0  0
   13.9573   10.7083   11.0466 N   0  0  0  0  0  0  0  0  0  0  0  0
   13.5207   10.7104   12.3869 C   0  0  0  0  0  0  0  0  0  0  0  0
   13.7840    9.7410   13.3191 C   0  0  0  0  0  0  0  0  0  0  0  0
   13.3129    9.8173   14.6326 C   0  0  0  0  0  0  0  0  0  0  0  0
   12.5561   10.8792   15.0531 C   0  0  0  0  0  0  0  0  0  0  0  0
   12.0644   11.0048   16.3413 O   0  0  0  0  0  0  0  0  0  0  0  0
   12.3019   10.0437   17.3380 C   0  0  0  0  0  0  0  0  0  0  0  0
   11.6290   10.5032   18.5836 C   0  0  0  0  0  0  0  0  0  0  0  0
   10.3088   10.1101   18.8040 C   0  0  0  0  0  0  0  0  0  0  0  0
    9.6852   10.5418   19.9685 C   0  0  0  0  0  0  0  0  0  0  0  0
   10.3740   11.3282   20.8520 C   0  0  0  0  0  0  0  0  0  0  0  0
   11.6841   11.7299   20.6532 C   0  0  0  0  0  0  0  0  0  0  0  0
   12.3124   11.2974   19.4842 C   0  0  0  0  0  0  0  0  0  0  0  0
   12.2810   11.8644   14.1289 C   0  0  0  0  0  0  0  0  0  0  0  0
   12.7473   11.7854   12.8353 C   0  0  0  0  0  0  0  0  0  0  0  0
   17.7973    9.1209   10.4874 C   0  0  0  0  0  0  0  0  0  0  0  0
   17.6875   10.1002   11.3090 O   0  0  0  0  0  0  0  0  0  0  0  0
   18.2105    7.9194   11.0950 O   0  0  0  0  0  0  0  0  0  0  0  0
  2  1  1  6
  2  3  1  0
  3  4  1  0
  4  5  1  0
  5  6  2  0
  5  7  1  0
  7  8  1  0
  8  9  2  0
  9 10  1  0
 10 11  2  0
 11 12  1  0
 12 13  1  0
 13 14  1  0
 14 15  2  0
 15 16  1  0
 16 17  2  0
 17 18  1  0
 18 19  2  0
 11 20  1  0
 20 21  2  0
  2 22  1  0
 22 23  2  0
 22 24  1  0
 21  8  1  0
 19 14  1  0
M  CHG  2   1   1  24  -1
M  END
>  <shape_align_shape_tanimoto>  (3) 
0.62522505033081555

>  <shape_align_color_tanimoto>  (3) 
0.067503212738170143

>  <metric>  (3) 
combo

>  <metric_score>  (3) 
0.346

>  <template_pid>  (3) 
3CHQ

>  <template_shape_score>  (3) 
0.625

>  <template_color_score>  (3) 
0.068

>  <template_combo_score>  (3) 
0.346

$$$$
