4MSN_shape_pose
     RDKit          3D

 13 14  0  0  0  0  0  0  0  0999 V2000
   15.3728  -36.0681  -17.8054 O   0  0  0  0  0  0  0  0  0  0  0  0
   14.6178  -35.8112  -18.7611 N   0  0  0  0  0  0  0  0  0  0  0  0
   13.7010  -34.7675  -18.6935 O   0  0  0  0  0  0  0  0  0  0  0  0
   14.6274  -36.5400  -19.9905 C   0  0  0  0  0  0  0  0  0  0  0  0
   14.3224  -35.8796  -21.1878 C   0  0  0  0  0  0  0  0  0  0  0  0
   14.3165  -36.5276  -22.3867 C   0  0  0  0  0  0  0  0  0  0  0  0
   14.6219  -37.8742  -22.4038 C   0  0  0  0  0  0  0  0  0  0  0  0
   14.9273  -38.5537  -21.2320 C   0  0  0  0  0  0  0  0  0  0  0  0
   15.2303  -39.8974  -21.2567 C   0  0  0  0  0  0  0  0  0  0  0  0
   15.5357  -40.5785  -20.0880 C   0  0  0  0  0  0  0  0  0  0  0  0
   15.5259  -39.8705  -18.9079 C   0  0  0  0  0  0  0  0  0  0  0  0
   15.2317  -38.5589  -18.8688 N   0  0  0  0  0  0  0  0  0  0  0  0
   14.9344  -37.8943  -20.0043 C   0  0  0  0  0  0  0  0  0  0  0  0
  1  2  2  0
  2  3  1  0
  2  4  1  0
  4  5  2  0
  5  6  1  0
  6  7  2  0
  7  8  1  0
  8  9  2  0
  9 10  1  0
 10 11  2  0
 11 12  1  0
 12 13  2  0
 13  4  1  0
 13  8  1  0
M  CHG  2   2   1   3  -1
M  END
>  <shape_align_shape_tanimoto>  (1) 
0.57060360925622411

>  <shape_align_color_tanimoto>  (1) 
0.11799512217633135

>  <metric>  (1) 
shape

>  <metric_score>  (1) 
0.571

>  <template_pid>  (1) 
4MSN

>  <template_shape_score>  (1) 
0.571

>  <template_color_score>  (1) 
0.118

>  <template_combo_score>  (1) 
0.344

$$$$
4MSN_color_pose
     RDKit          3D

 13 14  0  0  0  0  0  0  0  0999 V2000
   16.0938  -36.4945  -17.8442 O   0  0  0  0  0  0  0  0  0  0  0  0
   16.8339  -36.7801  -18.7887 N   0  0  0  0  0  0  0  0  0  0  0  0
   18.0018  -36.0742  -18.9624 O   0  0  0  0  0  0  0  0  0  0  0  0
   16.4329  -37.8373  -19.6549 C   0  0  0  0  0  0  0  0  0  0  0  0
   17.3959  -38.6213  -20.2563 C   0  0  0  0  0  0  0  0  0  0  0  0
   17.0340  -39.6553  -21.0987 C   0  0  0  0  0  0  0  0  0  0  0  0
   15.6911  -39.9365  -21.3649 C   0  0  0  0  0  0  0  0  0  0  0  0
   14.7357  -39.1626  -20.7716 C   0  0  0  0  0  0  0  0  0  0  0  0
   13.4094  -39.4453  -21.0368 C   0  0  0  0  0  0  0  0  0  0  0  0
   12.4620  -38.6594  -20.4314 C   0  0  0  0  0  0  0  0  0  0  0  0
   12.8679  -37.6422  -19.6015 C   0  0  0  0  0  0  0  0  0  0  0  0
   14.1520  -37.3528  -19.3320 N   0  0  0  0  0  0  0  0  0  0  0  0
   15.0986  -38.1164  -19.9196 C   0  0  0  0  0  0  0  0  0  0  0  0
  1  2  2  0
  2  3  1  0
  2  4  1  0
  4  5  2  0
  5  6  1  0
  6  7  2  0
  7  8  1  0
  8  9  2  0
  9 10  1  0
 10 11  2  0
 11 12  1  0
 12 13  2  0
 13  4  1  0
 13  8  1  0
M  CHG  2   2   1   3  -1
M  END
>  <shape_align_shape_tanimoto>  (2) 
0.56879436993201593

>  <shape_align_color_tanimoto>  (2) 
0.1205437326250532

>  <metric>  (2) 
color

>  <metric_score>  (2) 
0.121

>  <template_pid>  (2) 
4MSN

>  <template_shape_score>  (2) 
0.569

>  <template_color_score>  (2) 
0.121

>  <template_combo_score>  (2) 
0.345

$$$$
4MSN_combo_pose
     RDKit          3D

 13 14  0  0  0  0  0  0  0  0999 V2000
   14.8063  -39.9225  -17.8154 O   0  0  0  0  0  0  0  0  0  0  0  0
   15.8011  -39.8659  -18.5767 N   0  0  0  0  0  0  0  0  0  0  0  0
   16.9808  -40.5290  -18.2385 O   0  0  0  0  0  0  0  0  0  0  0  0
   15.8024  -39.1477  -19.7986 C   0  0  0  0  0  0  0  0  0  0  0  0
   16.5748  -39.6235  -20.8318 C   0  0  0  0  0  0  0  0  0  0  0  0
   16.6289  -38.9711  -22.0674 C   0  0  0  0  0  0  0  0  0  0  0  0
   15.8866  -37.8161  -22.2585 C   0  0  0  0  0  0  0  0  0  0  0  0
   15.1032  -37.3279  -21.2202 C   0  0  0  0  0  0  0  0  0  0  0  0
   14.3466  -36.1714  -21.3790 C   0  0  0  0  0  0  0  0  0  0  0  0
   13.5733  -35.6965  -20.3417 C   0  0  0  0  0  0  0  0  0  0  0  0
   13.5782  -36.4015  -19.1572 C   0  0  0  0  0  0  0  0  0  0  0  0
   14.3151  -37.5174  -19.0200 N   0  0  0  0  0  0  0  0  0  0  0  0
   15.0769  -37.9992  -20.0177 C   0  0  0  0  0  0  0  0  0  0  0  0
  1  2  2  0
  2  3  1  0
  2  4  1  0
  4  5  2  0
  5  6  1  0
  6  7  2  0
  7  8  1  0
  8  9  2  0
  9 10  1  0
 10 11  2  0
 11 12  1  0
 12 13  2  0
 13  4  1  0
 13  8  1  0
M  CHG  2   2   1   3  -1
M  END
>  <shape_align_shape_tanimoto>  (3) 
0.57030047419102281

>  <shape_align_color_tanimoto>  (3) 
0.11988919739922363

>  <metric>  (3) 
combo

>  <metric_score>  (3) 
0.345

>  <template_pid>  (3) 
4MSN

>  <template_shape_score>  (3) 
0.570

>  <template_color_score>  (3) 
0.120

>  <template_combo_score>  (3) 
0.345

$$$$
