5L2Z_shape_pose
     RDKit          3D

 48 53  0  0  0  0  0  0  0  0999 V2000
   -2.7458  -26.0856  -13.3018 C   0  0  0  0  0  0  0  0  0  0  0  0
   -1.6591  -26.0136  -14.3007 C   0  0  0  0  0  0  0  0  0  0  0  0
   -0.8607  -24.8616  -14.4502 C   0  0  0  0  0  0  0  0  0  0  0  0
    0.1078  -24.9208  -15.4104 C   0  0  0  0  0  0  0  0  0  0  0  0
    0.3236  -26.0131  -16.2206 C   0  0  0  0  0  0  0  0  0  0  0  0
   -0.4601  -27.1666  -16.0838 C   0  0  0  0  0  0  0  0  0  0  0  0
   -1.4521  -27.1255  -15.0911 C   0  0  0  0  0  0  0  0  0  0  0  0
   -2.1228  -28.4317  -14.8423 C   0  0  1  0  0  0  0  0  0  0  0  0
   -2.5237  -28.9728  -16.1969 C   0  0  0  0  0  0  0  0  0  0  0  0
   -1.1980  -29.4745  -14.2318 C   0  0  0  0  0  0  0  0  0  0  0  0
   -0.6914  -29.2227  -12.9609 O   0  0  0  0  0  0  0  0  0  0  0  0
    0.1008  -28.2506  -12.4601 C   0  0  0  0  0  0  0  0  0  0  0  0
    0.5400  -27.3668  -13.2427 O   0  0  0  0  0  0  0  0  0  0  0  0
    0.5344  -28.0325  -11.1109 N   0  0  0  0  0  0  0  0  0  0  0  0
    1.2735  -26.7890  -10.9738 C   0  0  0  0  0  0  0  0  0  0  0  0
    0.9057  -26.0340   -9.8795 C   0  0  0  0  0  0  0  0  0  0  0  0
    1.3812  -24.7492   -9.6995 C   0  0  0  0  0  0  0  0  0  0  0  0
    2.2633  -24.1459  -10.6224 C   0  0  0  0  0  0  0  0  0  0  0  0
    2.7539  -22.7851  -10.4936 C   0  0  0  0  0  0  0  0  0  0  0  0
    4.2528  -22.8442  -10.4609 C   0  0  0  0  0  0  0  0  0  0  0  0
    5.0043  -22.0828  -11.1088 O   0  0  0  0  0  0  0  0  0  0  0  0
    4.8996  -23.8087   -9.6590 O   0  0  0  0  0  0  0  0  0  0  0  0
    2.4299  -22.4332   -9.0125 C   0  0  0  0  0  0  0  0  0  0  0  0
    1.1564  -21.6994   -8.8392 C   0  0  0  0  0  0  0  0  0  0  0  0
    1.2818  -20.2766   -9.3986 C   0  0  0  0  0  0  0  0  0  0  0  0
    2.4509  -20.3634  -10.3544 C   0  0  0  0  0  0  0  0  0  0  0  0
    2.3325  -21.6228  -11.2229 C   0  0  0  0  0  0  0  0  0  0  0  0
    2.5961  -24.9480  -11.6887 C   0  0  0  0  0  0  0  0  0  0  0  0
    2.1225  -26.2496  -11.8765 C   0  0  0  0  0  0  0  0  0  0  0  0
    3.4551  -24.2853  -12.7256 C   0  0  0  0  0  0  0  0  0  0  0  0
    3.2316  -24.8139  -14.0025 N   0  0  0  0  0  0  0  0  0  0  0  0
    4.2714  -25.8980  -14.3408 C   0  0  0  0  0  0  0  0  0  0  0  0
    2.3363  -24.5808  -15.0281 C   0  0  0  0  0  0  0  0  0  0  0  0
    2.7232  -25.4525  -15.9394 O   0  0  0  0  0  0  0  0  0  0  0  0
    1.2013  -23.8317  -15.5151 C   0  0  2  0  0  0  0  0  0  0  0  0
    0.7560  -22.6737  -14.8475 N   0  0  0  0  0  0  0  0  0  0  0  0
    1.6285  -21.5258  -14.8523 C   0  0  0  0  0  0  0  0  0  0  0  0
    2.8483  -21.6131  -15.4931 C   0  0  0  0  0  0  0  0  0  0  0  0
    3.7157  -20.5204  -15.5235 C   0  0  0  0  0  0  0  0  0  0  0  0
    3.3493  -19.3399  -14.9062 C   0  0  0  0  0  0  0  0  0  0  0  0
    4.2560  -18.2926  -14.9731 C   0  0  0  0  0  0  0  0  0  0  0  0
    5.5013  -18.4438  -15.6498 N   0  0  0  0  0  0  0  0  0  0  0  0
    3.8902  -17.1462  -14.3686 N   0  0  0  0  0  0  0  0  0  0  0  0
    2.7128  -16.9897  -13.7237 C   0  0  0  0  0  0  0  0  0  0  0  0
    1.8209  -18.0376  -13.6646 C   0  0  0  0  0  0  0  0  0  0  0  0
    0.6232  -17.9494  -13.0365 F   0  0  0  0  0  0  0  0  0  0  0  0
    2.1347  -19.2402  -14.2634 C   0  0  0  0  0  0  0  0  0  0  0  0
    1.2865  -20.3365  -14.2440 C   0  0  0  0  0  0  0  0  0  0  0  0
  1  2  1  0
  2  3  2  0
  3  4  1  0
  4  5  2  0
  5  6  1  0
  6  7  2  0
  7  8  1  0
  8  9  1  6
  8 10  1  0
 10 11  1  0
 11 12  1  0
 12 13  2  0
 12 14  1  0
 14 15  1  0
 15 16  2  0
 16 17  1  0
 17 18  2  0
 18 19  1  0
 19 20  1  0
 20 21  2  0
 20 22  1  0
 19 23  1  0
 23 24  1  0
 24 25  1  0
 25 26  1  0
 26 27  1  0
 18 28  1  0
 28 29  2  0
 28 30  1  0
 30 31  1  0
 31 32  1  0
 31 33  1  0
 33 34  2  0
 33 35  1  0
 35 36  1  1
 36 37  1  0
 37 38  2  0
 38 39  1  0
 39 40  2  0
 40 41  1  0
 41 42  1  0
 41 43  2  0
 43 44  1  0
 44 45  2  0
 45 46  1  0
 45 47  1  0
 47 48  2  0
  7  2  1  0
 29 15  1  0
 48 37  1  0
 35  4  1  0
 47 40  1  0
 27 19  1  0
M  CHG  1  22  -1
M  END
>  <shape_align_shape_tanimoto>  (1) 
0.38172001826112356

>  <shape_align_color_tanimoto>  (1) 
0.015199786701287434

>  <metric>  (1) 
shape

>  <metric_score>  (1) 
0.382

>  <template_pid>  (1) 
5L2Z

>  <template_shape_score>  (1) 
0.382

>  <template_color_score>  (1) 
0.015

>  <template_combo_score>  (1) 
0.198

$$$$
5L2Z_color_pose
     RDKit          3D

 48 53  0  0  0  0  0  0  0  0999 V2000
    3.8465  -24.3478  -15.7996 C   0  0  0  0  0  0  0  0  0  0  0  0
    2.5881  -24.3619  -15.0144 C   0  0  0  0  0  0  0  0  0  0  0  0
    2.7550  -24.3539  -13.6238 C   0  0  0  0  0  0  0  0  0  0  0  0
    1.6856  -24.3203  -12.7545 C   0  0  0  0  0  0  0  0  0  0  0  0
    0.4341  -24.2884  -13.2991 C   0  0  0  0  0  0  0  0  0  0  0  0
    0.2497  -24.2970  -14.6635 C   0  0  0  0  0  0  0  0  0  0  0  0
    1.3270  -24.3395  -15.5634 C   0  0  0  0  0  0  0  0  0  0  0  0
    0.9983  -24.5050  -16.9807 C   0  0  1  0  0  0  0  0  0  0  0  0
    1.9663  -25.3979  -17.6961 C   0  0  0  0  0  0  0  0  0  0  0  0
   -0.3764  -25.2779  -17.0651 C   0  0  0  0  0  0  0  0  0  0  0  0
   -0.4317  -26.1677  -16.0964 O   0  0  0  0  0  0  0  0  0  0  0  0
   -0.4085  -27.0684  -15.1825 C   0  0  0  0  0  0  0  0  0  0  0  0
    0.5826  -27.8826  -15.1521 O   0  0  0  0  0  0  0  0  0  0  0  0
   -1.3604  -27.3040  -14.1318 N   0  0  0  0  0  0  0  0  0  0  0  0
   -0.9892  -28.3435  -13.2045 C   0  0  0  0  0  0  0  0  0  0  0  0
   -1.2078  -29.6622  -13.3362 C   0  0  0  0  0  0  0  0  0  0  0  0
   -0.7225  -30.4990  -12.3201 C   0  0  0  0  0  0  0  0  0  0  0  0
   -0.0368  -29.9922  -11.2126 C   0  0  0  0  0  0  0  0  0  0  0  0
    0.4463  -30.9368  -10.1727 C   0  0  0  0  0  0  0  0  0  0  0  0
    1.9351  -30.8586  -10.0085 C   0  0  0  0  0  0  0  0  0  0  0  0
    2.4864  -30.6061   -8.9134 O   0  0  0  0  0  0  0  0  0  0  0  0
    2.7320  -31.0757  -11.1292 O   0  0  0  0  0  0  0  0  0  0  0  0
    0.2760  -32.3764  -10.7015 C   0  0  0  0  0  0  0  0  0  0  0  0
   -1.1042  -32.8802  -10.4547 C   0  0  0  0  0  0  0  0  0  0  0  0
   -1.1107  -33.3151   -8.9734 C   0  0  0  0  0  0  0  0  0  0  0  0
   -0.3794  -32.2627   -8.1744 C   0  0  0  0  0  0  0  0  0  0  0  0
   -0.3014  -30.9212   -8.8920 C   0  0  0  0  0  0  0  0  0  0  0  0
    0.1826  -28.6439  -11.0888 C   0  0  0  0  0  0  0  0  0  0  0  0
   -0.3013  -27.8374  -12.0910 C   0  0  0  0  0  0  0  0  0  0  0  0
    0.9401  -27.9874  -10.0007 C   0  0  0  0  0  0  0  0  0  0  0  0
    0.8661  -26.4990  -10.1810 N   0  0  0  0  0  0  0  0  0  0  0  0
   -0.2629  -25.8869   -9.5011 C   0  0  0  0  0  0  0  0  0  0  0  0
    1.8159  -25.8094  -10.9509 C   0  0  0  0  0  0  0  0  0  0  0  0
    2.7404  -26.5480  -11.4702 O   0  0  0  0  0  0  0  0  0  0  0  0
    1.9164  -24.3755  -11.2603 C   0  0  2  0  0  0  0  0  0  0  0  0
    0.9911  -23.5101  -10.5823 N   0  0  0  0  0  0  0  0  0  0  0  0
    1.3472  -22.7634   -9.4100 C   0  0  0  0  0  0  0  0  0  0  0  0
    2.6119  -22.8051   -8.8589 C   0  0  0  0  0  0  0  0  0  0  0  0
    2.9652  -22.0541   -7.7449 C   0  0  0  0  0  0  0  0  0  0  0  0
    2.0335  -21.2203   -7.1375 C   0  0  0  0  0  0  0  0  0  0  0  0
    2.3348  -20.4529   -6.0408 C   0  0  0  0  0  0  0  0  0  0  0  0
    3.6587  -20.5164   -5.4863 N   0  0  0  0  0  0  0  0  0  0  0  0
    1.4006  -19.6573   -5.4963 N   0  0  0  0  0  0  0  0  0  0  0  0
    0.1426  -19.5915   -6.0197 C   0  0  0  0  0  0  0  0  0  0  0  0
   -0.1917  -20.3642   -7.1378 C   0  0  0  0  0  0  0  0  0  0  0  0
   -1.4594  -20.2965   -7.6635 F   0  0  0  0  0  0  0  0  0  0  0  0
    0.7693  -21.1800   -7.6928 C   0  0  0  0  0  0  0  0  0  0  0  0
    0.4202  -21.9167   -8.7927 C   0  0  0  0  0  0  0  0  0  0  0  0
  1  2  1  0
  2  3  2  0
  3  4  1  0
  4  5  2  0
  5  6  1  0
  6  7  2  0
  7  8  1  0
  8  9  1  6
  8 10  1  0
 10 11  1  0
 11 12  1  0
 12 13  2  0
 12 14  1  0
 14 15  1  0
 15 16  2  0
 16 17  1  0
 17 18  2  0
 18 19  1  0
 19 20  1  0
 20 21  2  0
 20 22  1  0
 19 23  1  0
 23 24  1  0
 24 25  1  0
 25 26  1  0
 26 27  1  0
 18 28  1  0
 28 29  2  0
 28 30  1  0
 30 31  1  0
 31 32  1  0
 31 33  1  0
 33 34  2  0
 33 35  1  0
 35 36  1  1
 36 37  1  0
 37 38  2  0
 38 39  1  0
 39 40  2  0
 40 41  1  0
 41 42  1  0
 41 43  2  0
 43 44  1  0
 44 45  2  0
 45 46  1  0
 45 47  1  0
 47 48  2  0
  7  2  1  0
 29 15  1  0
 48 37  1  0
 35  4  1  0
 47 40  1  0
 27 19  1  0
M  CHG  1  22  -1
M  END
>  <shape_align_shape_tanimoto>  (2) 
0.32636596309319715

>  <shape_align_color_tanimoto>  (2) 
0.052126212480942749

>  <metric>  (2) 
color

>  <metric_score>  (2) 
0.052

>  <template_pid>  (2) 
5L2Z

>  <template_shape_score>  (2) 
0.326

>  <template_color_score>  (2) 
0.052

>  <template_combo_score>  (2) 
0.189

$$$$
5L2Z_combo_pose
     RDKit          3D

 48 53  0  0  0  0  0  0  0  0999 V2000
   -2.7458  -26.0856  -13.3018 C   0  0  0  0  0  0  0  0  0  0  0  0
   -1.6591  -26.0136  -14.3007 C   0  0  0  0  0  0  0  0  0  0  0  0
   -0.8607  -24.8616  -14.4502 C   0  0  0  0  0  0  0  0  0  0  0  0
    0.1078  -24.9208  -15.4104 C   0  0  0  0  0  0  0  0  0  0  0  0
    0.3236  -26.0131  -16.2206 C   0  0  0  0  0  0  0  0  0  0  0  0
   -0.4601  -27.1666  -16.0838 C   0  0  0  0  0  0  0  0  0  0  0  0
   -1.4521  -27.1255  -15.0911 C   0  0  0  0  0  0  0  0  0  0  0  0
   -2.1228  -28.4317  -14.8423 C   0  0  1  0  0  0  0  0  0  0  0  0
   -2.5237  -28.9728  -16.1969 C   0  0  0  0  0  0  0  0  0  0  0  0
   -1.1980  -29.4745  -14.2318 C   0  0  0  0  0  0  0  0  0  0  0  0
   -0.6914  -29.2227  -12.9609 O   0  0  0  0  0  0  0  0  0  0  0  0
    0.1008  -28.2506  -12.4601 C   0  0  0  0  0  0  0  0  0  0  0  0
    0.5400  -27.3668  -13.2427 O   0  0  0  0  0  0  0  0  0  0  0  0
    0.5344  -28.0325  -11.1109 N   0  0  0  0  0  0  0  0  0  0  0  0
    1.2735  -26.7890  -10.9738 C   0  0  0  0  0  0  0  0  0  0  0  0
    0.9057  -26.0340   -9.8795 C   0  0  0  0  0  0  0  0  0  0  0  0
    1.3812  -24.7492   -9.6995 C   0  0  0  0  0  0  0  0  0  0  0  0
    2.2633  -24.1459  -10.6224 C   0  0  0  0  0  0  0  0  0  0  0  0
    2.7539  -22.7851  -10.4936 C   0  0  0  0  0  0  0  0  0  0  0  0
    4.2528  -22.8442  -10.4609 C   0  0  0  0  0  0  0  0  0  0  0  0
    5.0043  -22.0828  -11.1088 O   0  0  0  0  0  0  0  0  0  0  0  0
    4.8996  -23.8087   -9.6590 O   0  0  0  0  0  0  0  0  0  0  0  0
    2.4299  -22.4332   -9.0125 C   0  0  0  0  0  0  0  0  0  0  0  0
    1.1564  -21.6994   -8.8392 C   0  0  0  0  0  0  0  0  0  0  0  0
    1.2818  -20.2766   -9.3986 C   0  0  0  0  0  0  0  0  0  0  0  0
    2.4509  -20.3634  -10.3544 C   0  0  0  0  0  0  0  0  0  0  0  0
    2.3325  -21.6228  -11.2229 C   0  0  0  0  0  0  0  0  0  0  0  0
    2.5961  -24.9480  -11.6887 C   0  0  0  0  0  0  0  0  0  0  0  0
    2.1225  -26.2496  -11.8765 C   0  0  0  0  0  0  0  0  0  0  0  0
    3.4551  -24.2853  -12.7256 C   0  0  0  0  0  0  0  0  0  0  0  0
    3.2316  -24.8139  -14.0025 N   0  0  0  0  0  0  0  0  0  0  0  0
    4.2714  -25.8980  -14.3408 C   0  0  0  0  0  0  0  0  0  0  0  0
    2.3363  -24.5808  -15.0281 C   0  0  0  0  0  0  0  0  0  0  0  0
    2.7232  -25.4525  -15.9394 O   0  0  0  0  0  0  0  0  0  0  0  0
    1.2013  -23.8317  -15.5151 C   0  0  2  0  0  0  0  0  0  0  0  0
    0.7560  -22.6737  -14.8475 N   0  0  0  0  0  0  0  0  0  0  0  0
    1.6285  -21.5258  -14.8523 C   0  0  0  0  0  0  0  0  0  0  0  0
    2.8483  -21.6131  -15.4931 C   0  0  0  0  0  0  0  0  0  0  0  0
    3.7157  -20.5204  -15.5235 C   0  0  0  0  0  0  0  0  0  0  0  0
    3.3493  -19.3399  -14.9062 C   0  0  0  0  0  0  0  0  0  0  0  0
    4.2560  -18.2926  -14.9731 C   0  0  0  0  0  0  0  0  0  0  0  0
    5.5013  -18.4438  -15.6498 N   0  0  0  0  0  0  0  0  0  0  0  0
    3.8902  -17.1462  -14.3686 N   0  0  0  0  0  0  0  0  0  0  0  0
    2.7128  -16.9897  -13.7237 C   0  0  0  0  0  0  0  0  0  0  0  0
    1.8209  -18.0376  -13.6646 C   0  0  0  0  0  0  0  0  0  0  0  0
    0.6232  -17.9494  -13.0365 F   0  0  0  0  0  0  0  0  0  0  0  0
    2.1347  -19.2402  -14.2634 C   0  0  0  0  0  0  0  0  0  0  0  0
    1.2865  -20.3365  -14.2440 C   0  0  0  0  0  0  0  0  0  0  0  0
  1  2  1  0
  2  3  2  0
  3  4  1  0
  4  5  2  0
  5  6  1  0
  6  7  2  0
  7  8  1  0
  8  9  1  6
  8 10  1  0
 10 11  1  0
 11 12  1  0
 12 13  2  0
 12 14  1  0
 14 15  1  0
 15 16  2  0
 16 17  1  0
 17 18  2  0
 18 19  1  0
 19 20  1  0
 20 21  2  0
 20 22  1  0
 19 23  1  0
 23 24  1  0
 24 25  1  0
 25 26  1  0
 26 27  1  0
 18 28  1  0
 28 29  2  0
 28 30  1  0
 30 31  1  0
 31 32  1  0
 31 33  1  0
 33 34  2  0
 33 35  1  0
 35 36  1  1
 36 37  1  0
 37 38  2  0
 38 39  1  0
 39 40  2  0
 40 41  1  0
 41 42  1  0
 41 43  2  0
 43 44  1  0
 44 45  2  0
 45 46  1  0
 45 47  1  0
 47 48  2  0
  7  2  1  0
 29 15  1  0
 48 37  1  0
 35  4  1  0
 47 40  1  0
 27 19  1  0
M  CHG  1  22  -1
M  END
>  <shape_align_shape_tanimoto>  (3) 
0.38172001826112356

>  <shape_align_color_tanimoto>  (3) 
0.015199786701287434

>  <metric>  (3) 
combo

>  <metric_score>  (3) 
0.198

>  <template_pid>  (3) 
5L2Z

>  <template_shape_score>  (3) 
0.382

>  <template_color_score>  (3) 
0.015

>  <template_combo_score>  (3) 
0.198

$$$$
