4MW9_shape_pose
     RDKit          3D

 27 30  0  0  0  0  0  0  0  0999 V2000
   55.0420   31.4589   20.8589 C   0  0  0  0  0  0  0  0  0  0  0  0
   55.7990   30.2411   21.1071 N   0  0  0  0  0  0  0  0  0  0  0  0
   56.8738   30.0944   22.0269 C   0  0  0  0  0  0  0  0  0  0  0  0
   56.5351   29.9219   23.4522 C   0  0  0  0  0  0  0  0  0  0  0  0
   55.7144   30.8766   24.1158 N   0  0  0  0  0  0  0  0  0  0  0  0
   54.7804   30.1033   24.9467 C   0  0  2  0  0  0  0  0  0  0  0  0
   53.5815   29.7410   24.1413 C   0  0  0  0  0  0  0  0  0  0  0  0
   52.2954   30.3678   24.5562 C   0  0  0  0  0  0  0  0  0  0  0  0
   52.1268   30.2402   25.9993 N   0  0  0  0  0  0  0  0  0  0  0  0
   53.2358   30.7023   26.7969 C   0  0  0  0  0  0  0  0  0  0  0  0
   52.9648   31.1798   28.0545 C   0  0  0  0  0  0  0  0  0  0  0  0
   51.3253   31.2188   28.6908 Cl  0  0  0  0  0  0  0  0  0  0  0  0
   53.9868   31.6452   28.8675 C   0  0  0  0  0  0  0  0  0  0  0  0
   55.2552   31.5997   28.3514 C   0  0  0  0  0  0  0  0  0  0  0  0
   56.5747   32.1850   29.3688 Cl  0  0  0  0  0  0  0  0  0  0  0  0
   55.5323   31.1125   27.0691 C   0  0  0  0  0  0  0  0  0  0  0  0
   54.5320   30.6565   26.2737 C   0  0  0  0  0  0  0  0  0  0  0  0
   55.3239   29.0691   20.4258 C   0  0  0  0  0  0  0  0  0  0  0  0
   54.6172   28.1515   21.1669 N   0  0  0  0  0  0  0  0  0  0  0  0
   54.2524   27.1791   20.3355 C   0  0  0  0  0  0  0  0  0  0  0  0
   53.5440   26.0679   20.5961 N   0  0  0  0  0  0  0  0  0  0  0  0
   53.2608   25.1881   19.6242 C   0  0  0  0  0  0  0  0  0  0  0  0
   52.3342   23.7473   20.0220 Cl  0  0  0  0  0  0  0  0  0  0  0  0
   53.7142   25.4520   18.3460 C   0  0  0  0  0  0  0  0  0  0  0  0
   54.4547   26.6094   18.0693 C   0  0  0  0  0  0  0  0  0  0  0  0
   54.7408   27.5082   19.0887 C   0  0  0  0  0  0  0  0  0  0  0  0
   55.4090   28.6893   19.1548 N   0  0  0  0  0  0  0  0  0  0  0  0
  1  2  1  0
  2  3  1  0
  3  4  1  0
  4  5  1  0
  6  5  1  6
  6  7  1  0
  7  8  1  0
  8  9  1  0
  9 10  1  0
 10 11  2  0
 11 12  1  0
 11 13  1  0
 13 14  2  0
 14 15  1  0
 14 16  1  0
 16 17  2  0
  2 18  1  0
 18 19  2  0
 19 20  1  0
 20 21  2  0
 21 22  1  0
 22 23  1  0
 22 24  2  0
 24 25  1  0
 25 26  2  0
 26 27  1  0
 17  6  1  0
 27 18  1  0
 17 10  1  0
 26 20  1  0
M  CHG  1   5   1
M  END
>  <shape_align_shape_tanimoto>  (1) 
0.70124668943522139

>  <shape_align_color_tanimoto>  (1) 
0.087925212361046945

>  <metric>  (1) 
shape

>  <metric_score>  (1) 
0.701

>  <template_pid>  (1) 
4MW9

>  <template_shape_score>  (1) 
0.701

>  <template_color_score>  (1) 
0.088

>  <template_combo_score>  (1) 
0.395

$$$$
4MW9_color_pose
     RDKit          3D

 27 30  0  0  0  0  0  0  0  0999 V2000
   58.0864   30.2945   23.1985 C   0  0  0  0  0  0  0  0  0  0  0  0
   56.6801   29.8811   23.2299 N   0  0  0  0  0  0  0  0  0  0  0  0
   56.1865   29.1459   22.0481 C   0  0  0  0  0  0  0  0  0  0  0  0
   56.1228   30.0394   20.8545 C   0  0  0  0  0  0  0  0  0  0  0  0
   55.6498   29.4326   19.6391 N   0  0  0  0  0  0  0  0  0  0  0  0
   55.1364   28.1298   19.7176 C   0  0  2  0  0  0  0  0  0  0  0  0
   55.2626   27.3575   18.3906 C   0  0  0  0  0  0  0  0  0  0  0  0
   55.1424   25.8817   18.6360 C   0  0  0  0  0  0  0  0  0  0  0  0
   54.0746   25.5896   19.6053 N   0  0  0  0  0  0  0  0  0  0  0  0
   53.2175   26.6620   20.0546 C   0  0  0  0  0  0  0  0  0  0  0  0
   51.9253   26.3850   20.4041 C   0  0  0  0  0  0  0  0  0  0  0  0
   51.3098   24.7358   20.3110 Cl  0  0  0  0  0  0  0  0  0  0  0  0
   51.0871   27.4194   20.8399 C   0  0  0  0  0  0  0  0  0  0  0  0
   51.6041   28.7158   20.9043 C   0  0  0  0  0  0  0  0  0  0  0  0
   50.5582   30.0179   21.4501 Cl  0  0  0  0  0  0  0  0  0  0  0  0
   52.9157   28.9915   20.5485 C   0  0  0  0  0  0  0  0  0  0  0  0
   53.7275   27.9662   20.1224 C   0  0  0  0  0  0  0  0  0  0  0  0
   55.8294   30.1745   24.3310 C   0  0  0  0  0  0  0  0  0  0  0  0
   54.5172   29.8584   24.4893 N   0  0  0  0  0  0  0  0  0  0  0  0
   54.1045   30.3436   25.6981 C   0  0  0  0  0  0  0  0  0  0  0  0
   52.9036   30.3078   26.3418 N   0  0  0  0  0  0  0  0  0  0  0  0
   52.7312   30.8636   27.5442 C   0  0  0  0  0  0  0  0  0  0  0  0
   51.1496   30.7849   28.3277 Cl  0  0  0  0  0  0  0  0  0  0  0  0
   53.8083   31.4853   28.1339 C   0  0  0  0  0  0  0  0  0  0  0  0
   55.0606   31.5528   27.5224 C   0  0  0  0  0  0  0  0  0  0  0  0
   55.2004   30.9592   26.2640 C   0  0  0  0  0  0  0  0  0  0  0  0
   56.2569   30.8489   25.4131 N   0  0  0  0  0  0  0  0  0  0  0  0
  1  2  1  0
  2  3  1  0
  3  4  1  0
  4  5  1  0
  6  5  1  6
  6  7  1  0
  7  8  1  0
  8  9  1  0
  9 10  1  0
 10 11  2  0
 11 12  1  0
 11 13  1  0
 13 14  2  0
 14 15  1  0
 14 16  1  0
 16 17  2  0
  2 18  1  0
 18 19  2  0
 19 20  1  0
 20 21  2  0
 21 22  1  0
 22 23  1  0
 22 24  2  0
 24 25  1  0
 25 26  2  0
 26 27  1  0
 17  6  1  0
 27 18  1  0
 17 10  1  0
 26 20  1  0
M  CHG  1   5   1
M  END
>  <shape_align_shape_tanimoto>  (2) 
0.64238558981032978

>  <shape_align_color_tanimoto>  (2) 
0.15120912586413351

>  <metric>  (2) 
color

>  <metric_score>  (2) 
0.151

>  <template_pid>  (2) 
4MW9

>  <template_shape_score>  (2) 
0.642

>  <template_color_score>  (2) 
0.151

>  <template_combo_score>  (2) 
0.397

$$$$
4MW9_combo_pose
     RDKit          3D

 27 30  0  0  0  0  0  0  0  0999 V2000
   56.6266   31.7366   21.0005 C   0  0  0  0  0  0  0  0  0  0  0  0
   56.5768   30.4460   21.7286 N   0  0  0  0  0  0  0  0  0  0  0  0
   57.5114   30.3130   22.7979 C   0  0  0  0  0  0  0  0  0  0  0  0
   57.3544   29.2456   23.7869 C   0  0  0  0  0  0  0  0  0  0  0  0
   56.2171   29.1878   24.6235 N   0  0  0  0  0  0  0  0  0  0  0  0
   55.6650   30.4359   25.0880 C   0  0  2  0  0  0  0  0  0  0  0  0
   56.7001   31.1275   25.9159 C   0  0  0  0  0  0  0  0  0  0  0  0
   56.2777   31.7736   27.1891 C   0  0  0  0  0  0  0  0  0  0  0  0
   54.8875   32.1581   27.1569 N   0  0  0  0  0  0  0  0  0  0  0  0
   53.9529   31.1531   26.7761 C   0  0  0  0  0  0  0  0  0  0  0  0
   52.7262   31.0412   27.4078 C   0  0  0  0  0  0  0  0  0  0  0  0
   52.3127   32.2416   28.6531 Cl  0  0  0  0  0  0  0  0  0  0  0  0
   51.8236   30.0388   27.0733 C   0  0  0  0  0  0  0  0  0  0  0  0
   52.2287   29.1754   26.0797 C   0  0  0  0  0  0  0  0  0  0  0  0
   51.1303   27.8905   25.6390 Cl  0  0  0  0  0  0  0  0  0  0  0  0
   53.4490   29.2825   25.4457 C   0  0  0  0  0  0  0  0  0  0  0  0
   54.3680   30.2892   25.7748 C   0  0  0  0  0  0  0  0  0  0  0  0
   55.6509   29.5039   21.2405 C   0  0  0  0  0  0  0  0  0  0  0  0
   55.9669   28.7524   20.1300 N   0  0  0  0  0  0  0  0  0  0  0  0
   54.9428   27.9437   19.8299 C   0  0  0  0  0  0  0  0  0  0  0  0
   54.7983   27.0509   18.8449 N   0  0  0  0  0  0  0  0  0  0  0  0
   53.6744   26.3290   18.7033 C   0  0  0  0  0  0  0  0  0  0  0  0
   53.5836   25.1953   17.3918 Cl  0  0  0  0  0  0  0  0  0  0  0  0
   52.6656   26.5429   19.6214 C   0  0  0  0  0  0  0  0  0  0  0  0
   52.7959   27.4727   20.6612 C   0  0  0  0  0  0  0  0  0  0  0  0
   53.9741   28.2042   20.7794 C   0  0  0  0  0  0  0  0  0  0  0  0
   54.4234   29.1531   21.6252 N   0  0  0  0  0  0  0  0  0  0  0  0
  1  2  1  0
  2  3  1  0
  3  4  1  0
  4  5  1  0
  6  5  1  1
  6  7  1  0
  7  8  1  0
  8  9  1  0
  9 10  1  0
 10 11  2  0
 11 12  1  0
 11 13  1  0
 13 14  2  0
 14 15  1  0
 14 16  1  0
 16 17  2  0
  2 18  1  0
 18 19  2  0
 19 20  1  0
 20 21  2  0
 21 22  1  0
 22 23  1  0
 22 24  2  0
 24 25  1  0
 25 26  2  0
 26 27  1  0
 17  6  1  0
 27 18  1  0
 17 10  1  0
 26 20  1  0
M  CHG  1   5   1
M  END
>  <shape_align_shape_tanimoto>  (3) 
0.68797915364603424

>  <shape_align_color_tanimoto>  (3) 
0.11042846768152227

>  <metric>  (3) 
combo

>  <metric_score>  (3) 
0.399

>  <template_pid>  (3) 
4MW9

>  <template_shape_score>  (3) 
0.688

>  <template_color_score>  (3) 
0.110

>  <template_combo_score>  (3) 
0.399

$$$$
