1A52_shape_pose
     RDKit          3D

 20 23  0  0  0  0  0  0  0  0999 V2000
   27.4481    0.2512   25.9524 C   0  0  0  0  0  0  0  0  0  0  0  0
   27.7640   -0.2399   27.3348 C   0  0  2  0  0  0  0  0  0  0  0  0
   28.1420    0.8189   28.3047 C   0  0  0  0  0  0  0  0  0  0  0  0
   29.5551    1.2779   27.9940 C   0  0  0  0  0  0  0  0  0  0  0  0
   30.4690    0.1304   28.1826 C   0  0  2  0  0  0  0  0  0  0  0  0
   31.8926    0.4466   28.2842 C   0  0  0  0  0  0  0  0  0  0  0  0
   32.3957    1.7053   28.4833 C   0  0  0  0  0  0  0  0  0  0  0  0
   33.7680    1.9468   28.5723 C   0  0  0  0  0  0  0  0  0  0  0  0
   34.6626    0.9025   28.4594 C   0  0  0  0  0  0  0  0  0  0  0  0
   36.0416    1.1499   28.5496 O   0  0  0  0  0  0  0  0  0  0  0  0
   34.1693   -0.3751   28.2581 C   0  0  0  0  0  0  0  0  0  0  0  0
   32.8031   -0.5874   28.1734 C   0  0  0  0  0  0  0  0  0  0  0  0
   32.2267   -1.9507   27.9566 C   0  0  0  0  0  0  0  0  0  0  0  0
   31.1448   -1.9494   26.9226 C   0  0  0  0  0  0  0  0  0  0  0  0
   30.1535   -0.8465   27.0408 C   0  0  1  0  0  0  0  0  0  0  0  0
   28.7877   -1.3346   27.3759 C   0  0  2  0  0  0  0  0  0  0  0  0
   28.1773   -2.3493   26.4974 C   0  0  0  0  0  0  0  0  0  0  0  0
   26.7522   -2.3955   27.0635 C   0  0  0  0  0  0  0  0  0  0  0  0
   26.5498   -1.0510   27.7754 C   0  0  2  0  0  0  0  0  0  0  0  0
   25.3602   -0.5116   27.3134 O   0  0  0  0  0  0  0  0  0  0  0  0
  2  1  1  6
  2  3  1  0
  3  4  1  0
  5  4  1  6
  5  6  1  0
  6  7  2  0
  7  8  1  0
  8  9  2  0
  9 10  1  0
  9 11  1  0
 11 12  2  0
 12 13  1  0
 13 14  1  0
 15 14  1  1
 15 16  1  0
 16 17  1  6
 17 18  1  0
 18 19  1  0
 19 20  1  6
 16  2  1  0
 19  2  1  0
 15  5  1  0
 12  6  1  0
M  END
>  <shape_align_shape_tanimoto>  (1) 
0.48857088167115709

>  <shape_align_color_tanimoto>  (1) 
0.042920808832866461

>  <metric>  (1) 
shape

>  <metric_score>  (1) 
0.489

>  <template_pid>  (1) 
1A52

>  <template_shape_score>  (1) 
0.489

>  <template_color_score>  (1) 
0.043

>  <template_combo_score>  (1) 
0.266

$$$$
1A52_color_pose
     RDKit          3D

 20 23  0  0  0  0  0  0  0  0999 V2000
   29.3443   -1.7207   28.8085 C   0  0  0  0  0  0  0  0  0  0  0  0
   29.2751   -1.1220   27.4463 C   0  0  2  0  0  0  0  0  0  0  0  0
   30.2917   -1.7916   26.5754 C   0  0  0  0  0  0  0  0  0  0  0  0
   31.6246   -1.5907   27.2876 C   0  0  0  0  0  0  0  0  0  0  0  0
   31.9249   -0.1305   27.3080 C   0  0  2  0  0  0  0  0  0  0  0  0
   33.2181    0.1209   28.0266 C   0  0  0  0  0  0  0  0  0  0  0  0
   33.9765   -0.8718   28.5611 C   0  0  0  0  0  0  0  0  0  0  0  0
   35.1591   -0.5099   29.2055 C   0  0  0  0  0  0  0  0  0  0  0  0
   35.5206    0.8274   29.2811 C   0  0  0  0  0  0  0  0  0  0  0  0
   36.7160    1.1759   29.9341 O   0  0  0  0  0  0  0  0  0  0  0  0
   34.7424    1.8333   28.7339 C   0  0  0  0  0  0  0  0  0  0  0  0
   33.5869    1.4705   28.1051 C   0  0  0  0  0  0  0  0  0  0  0  0
   32.6439    2.4274   27.4676 C   0  0  0  0  0  0  0  0  0  0  0  0
   31.2054    2.1486   27.7410 C   0  0  0  0  0  0  0  0  0  0  0  0
   30.8917    0.6946   28.0285 C   0  0  1  0  0  0  0  0  0  0  0  0
   29.5390    0.3835   27.4977 C   0  0  2  0  0  0  0  0  0  0  0  0
   28.3960    0.7775   28.3848 C   0  0  0  0  0  0  0  0  0  0  0  0
   27.2455   -0.0814   27.8657 C   0  0  0  0  0  0  0  0  0  0  0  0
   27.8710   -1.1227   26.9401 C   0  0  2  0  0  0  0  0  0  0  0  0
   27.2431   -2.3605   27.0755 O   0  0  0  0  0  0  0  0  0  0  0  0
  2  1  1  1
  2  3  1  0
  3  4  1  0
  5  4  1  1
  5  6  1  0
  6  7  2  0
  7  8  1  0
  8  9  2  0
  9 10  1  0
  9 11  1  0
 11 12  2  0
 12 13  1  0
 13 14  1  0
 15 14  1  6
 15 16  1  0
 16 17  1  1
 17 18  1  0
 18 19  1  0
 19 20  1  1
 16  2  1  0
 19  2  1  0
 15  5  1  0
 12  6  1  0
M  END
>  <shape_align_shape_tanimoto>  (2) 
0.45942898826296746

>  <shape_align_color_tanimoto>  (2) 
0.12251445960189773

>  <metric>  (2) 
color

>  <metric_score>  (2) 
0.123

>  <template_pid>  (2) 
1A52

>  <template_shape_score>  (2) 
0.459

>  <template_color_score>  (2) 
0.123

>  <template_combo_score>  (2) 
0.291

$$$$
1A52_combo_pose
     RDKit          3D

 20 23  0  0  0  0  0  0  0  0999 V2000
   29.3443   -1.7207   28.8085 C   0  0  0  0  0  0  0  0  0  0  0  0
   29.2751   -1.1220   27.4463 C   0  0  2  0  0  0  0  0  0  0  0  0
   30.2917   -1.7916   26.5754 C   0  0  0  0  0  0  0  0  0  0  0  0
   31.6246   -1.5907   27.2876 C   0  0  0  0  0  0  0  0  0  0  0  0
   31.9249   -0.1305   27.3080 C   0  0  2  0  0  0  0  0  0  0  0  0
   33.2181    0.1209   28.0266 C   0  0  0  0  0  0  0  0  0  0  0  0
   33.9765   -0.8718   28.5611 C   0  0  0  0  0  0  0  0  0  0  0  0
   35.1591   -0.5099   29.2055 C   0  0  0  0  0  0  0  0  0  0  0  0
   35.5206    0.8274   29.2811 C   0  0  0  0  0  0  0  0  0  0  0  0
   36.7160    1.1759   29.9341 O   0  0  0  0  0  0  0  0  0  0  0  0
   34.7424    1.8333   28.7339 C   0  0  0  0  0  0  0  0  0  0  0  0
   33.5869    1.4705   28.1051 C   0  0  0  0  0  0  0  0  0  0  0  0
   32.6439    2.4274   27.4676 C   0  0  0  0  0  0  0  0  0  0  0  0
   31.2054    2.1486   27.7410 C   0  0  0  0  0  0  0  0  0  0  0  0
   30.8917    0.6946   28.0285 C   0  0  1  0  0  0  0  0  0  0  0  0
   29.5390    0.3835   27.4977 C   0  0  2  0  0  0  0  0  0  0  0  0
   28.3960    0.7775   28.3848 C   0  0  0  0  0  0  0  0  0  0  0  0
   27.2455   -0.0814   27.8657 C   0  0  0  0  0  0  0  0  0  0  0  0
   27.8710   -1.1227   26.9401 C   0  0  2  0  0  0  0  0  0  0  0  0
   27.2431   -2.3605   27.0755 O   0  0  0  0  0  0  0  0  0  0  0  0
  2  1  1  1
  2  3  1  0
  3  4  1  0
  5  4  1  1
  5  6  1  0
  6  7  2  0
  7  8  1  0
  8  9  2  0
  9 10  1  0
  9 11  1  0
 11 12  2  0
 12 13  1  0
 13 14  1  0
 15 14  1  6
 15 16  1  0
 16 17  1  1
 17 18  1  0
 18 19  1  0
 19 20  1  1
 16  2  1  0
 19  2  1  0
 15  5  1  0
 12  6  1  0
M  END
>  <shape_align_shape_tanimoto>  (3) 
0.45942898826296746

>  <shape_align_color_tanimoto>  (3) 
0.12251445960189773

>  <metric>  (3) 
combo

>  <metric_score>  (3) 
0.291

>  <template_pid>  (3) 
1A52

>  <template_shape_score>  (3) 
0.459

>  <template_color_score>  (3) 
0.123

>  <template_combo_score>  (3) 
0.291

$$$$
