4D3H_shape_pose
     RDKit          3D

 44 50  0  0  0  0  0  0  0  0999 V2000
   21.6161   22.4020   19.9246 N   0  0  0  0  0  0  0  0  0  0  0  0
   22.1425   22.6721   21.2174 C   0  0  0  0  0  0  0  0  0  0  0  0
   22.1508   21.6688   22.1419 N   0  0  0  0  0  0  0  0  0  0  0  0
   22.6405   21.8824   23.3782 C   0  0  0  0  0  0  0  0  0  0  0  0
   23.1182   23.1042   23.6749 N   0  0  0  0  0  0  0  0  0  0  0  0
   23.1300   24.1343   22.7852 C   0  0  0  0  0  0  0  0  0  0  0  0
   22.6327   23.9274   21.5206 C   0  0  0  0  0  0  0  0  0  0  0  0
   22.7626   25.0762   20.8687 N   0  0  0  0  0  0  0  0  0  0  0  0
   23.3266   25.9731   21.7086 C   0  0  0  0  0  0  0  0  0  0  0  0
   23.5559   25.4003   22.8913 N   0  0  0  0  0  0  0  0  0  0  0  0
   24.1371   25.9386   24.1032 C   0  0  2  0  0  0  0  0  0  0  0  0
   23.3587   25.7122   25.2217 O   0  0  0  0  0  0  0  0  0  0  0  0
   23.0518   26.9481   25.7846 C   0  0  2  0  0  0  0  0  0  0  0  0
   21.7125   27.3448   25.2027 C   0  0  0  0  0  0  0  0  0  0  0  0
   21.0269   26.1887   24.7798 O   0  0  0  0  0  0  0  0  0  0  0  0
   20.3808   25.3931   26.1603 P   0  0  1  0  0  5  0  0  0  0  0  0
   19.8790   26.3608   27.1785 O   0  0  0  0  0  0  0  0  0  0  0  0
   19.0840   24.4512   25.6246 O   0  0  0  0  0  0  0  0  0  0  0  0
   21.6398   24.4074   26.7148 O   0  0  0  0  0  0  0  0  0  0  0  0
   21.6990   24.3048   28.1018 C   0  0  1  0  0  0  0  0  0  0  0  0
   20.9058   23.0523   28.5071 C   0  0  1  0  0  0  0  0  0  0  0  0
   20.6318   22.2783   27.3734 O   0  0  0  0  0  0  0  0  0  0  0  0
   21.9482   22.2977   29.3106 C   0  0  2  0  0  0  0  0  0  0  0  0
   21.3950   21.4641   30.3293 N   0  0  0  0  0  0  0  0  0  0  0  0
   21.4753   20.1064   30.4107 C   0  0  0  0  0  0  0  0  0  0  0  0
   20.8435   19.6644   31.4952 N   0  0  0  0  0  0  0  0  0  0  0  0
   20.3358   20.7031   32.1505 C   0  0  0  0  0  0  0  0  0  0  0  0
   19.6077   20.7628   33.3121 C   0  0  0  0  0  0  0  0  0  0  0  0
   19.2898   19.5592   34.0098 N   0  0  0  0  0  0  0  0  0  0  0  0
   19.2254   21.9798   33.7383 N   0  0  0  0  0  0  0  0  0  0  0  0
   19.5526   23.0964   33.0390 C   0  0  0  0  0  0  0  0  0  0  0  0
   20.2750   23.0192   31.8893 N   0  0  0  0  0  0  0  0  0  0  0  0
   20.6854   21.8223   31.4150 C   0  0  0  0  0  0  0  0  0  0  0  0
   22.7994   23.3082   29.8103 O   0  0  0  0  0  0  0  0  0  0  0  0
   23.0811   23.9542   28.5861 C   0  0  2  0  0  0  0  0  0  0  0  0
   23.9715   25.1527   28.8148 C   0  0  0  0  0  0  0  0  0  0  0  0
   24.5293   25.4801   27.5565 O   0  0  0  0  0  0  0  0  0  0  0  0
   25.2238   27.0131   27.5922 P   0  0  1  0  0  5  0  0  0  0  0  0
   24.6363   27.8564   28.7214 O   0  0  0  0  0  0  0  0  0  0  0  0
   26.8455   26.7493   28.0821 O   0  0  0  0  0  0  0  0  0  0  0  0
   25.2748   27.7987   26.1497 O   0  0  0  0  0  0  0  0  0  0  0  0
   24.1226   27.8865   25.4053 C   0  0  1  0  0  0  0  0  0  0  0  0
   24.4420   27.4048   23.9902 C   0  0  1  0  0  0  0  0  0  0  0  0
   25.7956   27.6082   23.7264 O   0  0  0  0  0  0  0  0  0  0  0  0
  1  2  1  0
  2  3  2  0
  3  4  1  0
  4  5  2  0
  5  6  1  0
  6  7  2  0
  7  8  1  0
  8  9  2  0
  9 10  1  0
 11 10  1  6
 11 12  1  0
 12 13  1  0
 13 14  1  6
 14 15  1  0
 15 16  1  0
 16 17  2  0
 16 18  1  6
 16 19  1  0
 20 19  1  6
 20 21  1  0
 21 22  1  6
 21 23  1  0
 23 24  1  1
 24 25  1  0
 25 26  2  0
 26 27  1  0
 27 28  2  0
 28 29  1  0
 28 30  1  0
 30 31  2  0
 31 32  1  0
 32 33  2  0
 23 34  1  0
 34 35  1  0
 35 36  1  1
 36 37  1  0
 37 38  1  0
 38 39  2  0
 38 40  1  1
 38 41  1  0
 42 41  1  1
 42 43  1  0
 43 44  1  1
  7  2  1  0
 43 11  1  0
 10  6  1  0
 42 13  1  0
 35 20  1  0
 33 24  1  0
 33 27  1  0
M  END
>  <shape_align_shape_tanimoto>  (1) 
0.54000833933753623

>  <shape_align_color_tanimoto>  (1) 
0.077008913243844068

>  <metric>  (1) 
shape

>  <metric_score>  (1) 
0.540

>  <template_pid>  (1) 
4D3H

>  <template_shape_score>  (1) 
0.540

>  <template_color_score>  (1) 
0.077

>  <template_combo_score>  (1) 
0.309

$$$$
4D3H_color_pose
     RDKit          3D

 44 50  0  0  0  0  0  0  0  0999 V2000
   21.2856   18.8337   28.4599 N   0  0  0  0  0  0  0  0  0  0  0  0
   21.2371   19.7028   29.6014 C   0  0  0  0  0  0  0  0  0  0  0  0
   20.0675   19.9983   30.2162 N   0  0  0  0  0  0  0  0  0  0  0  0
   20.0449   20.8254   31.2980 C   0  0  0  0  0  0  0  0  0  0  0  0
   21.1801   21.3685   31.7821 N   0  0  0  0  0  0  0  0  0  0  0  0
   22.3804   21.1137   31.2142 C   0  0  0  0  0  0  0  0  0  0  0  0
   22.3699   20.2721   30.1201 C   0  0  0  0  0  0  0  0  0  0  0  0
   23.6423   20.1614   29.7257 N   0  0  0  0  0  0  0  0  0  0  0  0
   24.3970   20.8973   30.5359 C   0  0  0  0  0  0  0  0  0  0  0  0
   23.6543   21.5101   31.4801 N   0  0  0  0  0  0  0  0  0  0  0  0
   24.0481   22.3866   32.5442 C   0  0  2  0  0  0  0  0  0  0  0  0
   23.2471   23.5015   32.6982 O   0  0  0  0  0  0  0  0  0  0  0  0
   23.5598   24.4014   31.6901 C   0  0  2  0  0  0  0  0  0  0  0  0
   22.4376   24.4226   30.6868 C   0  0  0  0  0  0  0  0  0  0  0  0
   22.2269   25.7189   30.2932 O   0  0  0  0  0  0  0  0  0  0  0  0
   21.0123   25.9473   29.1752 P   0  0  1  0  0  5  0  0  0  0  0  0
   20.0784   24.7643   29.0804 O   0  0  0  0  0  0  0  0  0  0  0  0
   20.0597   27.2453   29.7556 O   0  0  0  0  0  0  0  0  0  0  0  0
   21.5636   26.4098   27.6568 O   0  0  0  0  0  0  0  0  0  0  0  0
   22.8259   25.9162   27.3698 C   0  0  1  0  0  0  0  0  0  0  0  0
   22.7298   25.1533   26.0635 C   0  0  1  0  0  0  0  0  0  0  0  0
   21.5054   24.5060   25.9313 O   0  0  0  0  0  0  0  0  0  0  0  0
   22.8727   26.2941   25.0772 C   0  0  2  0  0  0  0  0  0  0  0  0
   23.4038   25.8163   23.8153 N   0  0  0  0  0  0  0  0  0  0  0  0
   24.5669   26.1527   23.2040 C   0  0  0  0  0  0  0  0  0  0  0  0
   24.6878   25.4811   22.0406 N   0  0  0  0  0  0  0  0  0  0  0  0
   23.5995   24.7073   21.8983 C   0  0  0  0  0  0  0  0  0  0  0  0
   23.2693   23.8425   20.8746 C   0  0  0  0  0  0  0  0  0  0  0  0
   24.1412   23.6753   19.7634 N   0  0  0  0  0  0  0  0  0  0  0  0
   22.0974   23.1864   20.9970 N   0  0  0  0  0  0  0  0  0  0  0  0
   21.3142   23.3982   22.0909 C   0  0  0  0  0  0  0  0  0  0  0  0
   21.6471   24.2363   23.0706 N   0  0  0  0  0  0  0  0  0  0  0  0
   22.8108   24.9215   23.0013 C   0  0  0  0  0  0  0  0  0  0  0  0
   23.8202   27.1106   25.6330 O   0  0  0  0  0  0  0  0  0  0  0  0
   23.7736   27.0253   26.9950 C   0  0  2  0  0  0  0  0  0  0  0  0
   25.1403   26.5884   27.5198 C   0  0  0  0  0  0  0  0  0  0  0  0
   24.9161   25.9992   28.7396 O   0  0  0  0  0  0  0  0  0  0  0  0
   26.2787   25.4318   29.5207 P   0  0  1  0  0  5  0  0  0  0  0  0
   26.8135   24.1491   28.9199 O   0  0  0  0  0  0  0  0  0  0  0  0
   27.4616   26.6104   29.4990 O   0  0  0  0  0  0  0  0  0  0  0  0
   25.8055   25.0559   31.1220 O   0  0  0  0  0  0  0  0  0  0  0  0
   24.8931   24.0283   31.1237 C   0  0  1  0  0  0  0  0  0  0  0  0
   25.3733   23.0243   32.1813 C   0  0  1  0  0  0  0  0  0  0  0  0
   25.8361   23.7884   33.2645 O   0  0  0  0  0  0  0  0  0  0  0  0
  1  2  1  0
  2  3  2  0
  3  4  1  0
  4  5  2  0
  5  6  1  0
  6  7  2  0
  7  8  1  0
  8  9  2  0
  9 10  1  0
 11 10  1  6
 11 12  1  0
 12 13  1  0
 13 14  1  6
 14 15  1  0
 15 16  1  0
 16 17  2  0
 16 18  1  1
 16 19  1  0
 20 19  1  6
 20 21  1  0
 21 22  1  1
 21 23  1  0
 23 24  1  6
 24 25  1  0
 25 26  2  0
 26 27  1  0
 27 28  2  0
 28 29  1  0
 28 30  1  0
 30 31  2  0
 31 32  1  0
 32 33  2  0
 23 34  1  0
 34 35  1  0
 35 36  1  6
 36 37  1  0
 37 38  1  0
 38 39  2  0
 38 40  1  1
 38 41  1  0
 42 41  1  1
 42 43  1  0
 43 44  1  1
  7  2  1  0
 43 11  1  0
 10  6  1  0
 42 13  1  0
 35 20  1  0
 33 24  1  0
 33 27  1  0
M  END
>  <shape_align_shape_tanimoto>  (2) 
0.41376467040728543

>  <shape_align_color_tanimoto>  (2) 
0.094222584580636592

>  <metric>  (2) 
color

>  <metric_score>  (2) 
0.094

>  <template_pid>  (2) 
4D3H

>  <template_shape_score>  (2) 
0.414

>  <template_color_score>  (2) 
0.094

>  <template_combo_score>  (2) 
0.254

$$$$
4D3H_combo_pose
     RDKit          3D

 44 50  0  0  0  0  0  0  0  0999 V2000
   21.6161   22.4020   19.9246 N   0  0  0  0  0  0  0  0  0  0  0  0
   22.1425   22.6721   21.2174 C   0  0  0  0  0  0  0  0  0  0  0  0
   22.1508   21.6688   22.1419 N   0  0  0  0  0  0  0  0  0  0  0  0
   22.6405   21.8824   23.3782 C   0  0  0  0  0  0  0  0  0  0  0  0
   23.1182   23.1042   23.6749 N   0  0  0  0  0  0  0  0  0  0  0  0
   23.1300   24.1343   22.7852 C   0  0  0  0  0  0  0  0  0  0  0  0
   22.6327   23.9274   21.5206 C   0  0  0  0  0  0  0  0  0  0  0  0
   22.7626   25.0762   20.8687 N   0  0  0  0  0  0  0  0  0  0  0  0
   23.3266   25.9731   21.7086 C   0  0  0  0  0  0  0  0  0  0  0  0
   23.5559   25.4003   22.8913 N   0  0  0  0  0  0  0  0  0  0  0  0
   24.1371   25.9386   24.1032 C   0  0  2  0  0  0  0  0  0  0  0  0
   23.3587   25.7122   25.2217 O   0  0  0  0  0  0  0  0  0  0  0  0
   23.0518   26.9481   25.7846 C   0  0  2  0  0  0  0  0  0  0  0  0
   21.7125   27.3448   25.2027 C   0  0  0  0  0  0  0  0  0  0  0  0
   21.0269   26.1887   24.7798 O   0  0  0  0  0  0  0  0  0  0  0  0
   20.3808   25.3931   26.1603 P   0  0  1  0  0  5  0  0  0  0  0  0
   19.8790   26.3608   27.1785 O   0  0  0  0  0  0  0  0  0  0  0  0
   19.0840   24.4512   25.6246 O   0  0  0  0  0  0  0  0  0  0  0  0
   21.6398   24.4074   26.7148 O   0  0  0  0  0  0  0  0  0  0  0  0
   21.6990   24.3048   28.1018 C   0  0  1  0  0  0  0  0  0  0  0  0
   20.9058   23.0523   28.5071 C   0  0  1  0  0  0  0  0  0  0  0  0
   20.6318   22.2783   27.3734 O   0  0  0  0  0  0  0  0  0  0  0  0
   21.9482   22.2977   29.3106 C   0  0  2  0  0  0  0  0  0  0  0  0
   21.3950   21.4641   30.3293 N   0  0  0  0  0  0  0  0  0  0  0  0
   21.4753   20.1064   30.4107 C   0  0  0  0  0  0  0  0  0  0  0  0
   20.8435   19.6644   31.4952 N   0  0  0  0  0  0  0  0  0  0  0  0
   20.3358   20.7031   32.1505 C   0  0  0  0  0  0  0  0  0  0  0  0
   19.6077   20.7628   33.3121 C   0  0  0  0  0  0  0  0  0  0  0  0
   19.2898   19.5592   34.0098 N   0  0  0  0  0  0  0  0  0  0  0  0
   19.2254   21.9798   33.7383 N   0  0  0  0  0  0  0  0  0  0  0  0
   19.5526   23.0964   33.0390 C   0  0  0  0  0  0  0  0  0  0  0  0
   20.2750   23.0192   31.8893 N   0  0  0  0  0  0  0  0  0  0  0  0
   20.6854   21.8223   31.4150 C   0  0  0  0  0  0  0  0  0  0  0  0
   22.7994   23.3082   29.8103 O   0  0  0  0  0  0  0  0  0  0  0  0
   23.0811   23.9542   28.5861 C   0  0  2  0  0  0  0  0  0  0  0  0
   23.9715   25.1527   28.8148 C   0  0  0  0  0  0  0  0  0  0  0  0
   24.5293   25.4801   27.5565 O   0  0  0  0  0  0  0  0  0  0  0  0
   25.2238   27.0131   27.5922 P   0  0  1  0  0  5  0  0  0  0  0  0
   24.6363   27.8564   28.7214 O   0  0  0  0  0  0  0  0  0  0  0  0
   26.8455   26.7493   28.0821 O   0  0  0  0  0  0  0  0  0  0  0  0
   25.2748   27.7987   26.1497 O   0  0  0  0  0  0  0  0  0  0  0  0
   24.1226   27.8865   25.4053 C   0  0  1  0  0  0  0  0  0  0  0  0
   24.4420   27.4048   23.9902 C   0  0  1  0  0  0  0  0  0  0  0  0
   25.7956   27.6082   23.7264 O   0  0  0  0  0  0  0  0  0  0  0  0
  1  2  1  0
  2  3  2  0
  3  4  1  0
  4  5  2  0
  5  6  1  0
  6  7  2  0
  7  8  1  0
  8  9  2  0
  9 10  1  0
 11 10  1  6
 11 12  1  0
 12 13  1  0
 13 14  1  6
 14 15  1  0
 15 16  1  0
 16 17  2  0
 16 18  1  6
 16 19  1  0
 20 19  1  6
 20 21  1  0
 21 22  1  6
 21 23  1  0
 23 24  1  1
 24 25  1  0
 25 26  2  0
 26 27  1  0
 27 28  2  0
 28 29  1  0
 28 30  1  0
 30 31  2  0
 31 32  1  0
 32 33  2  0
 23 34  1  0
 34 35  1  0
 35 36  1  1
 36 37  1  0
 37 38  1  0
 38 39  2  0
 38 40  1  1
 38 41  1  0
 42 41  1  1
 42 43  1  0
 43 44  1  1
  7  2  1  0
 43 11  1  0
 10  6  1  0
 42 13  1  0
 35 20  1  0
 33 24  1  0
 33 27  1  0
M  END
>  <shape_align_shape_tanimoto>  (3) 
0.54000833933753623

>  <shape_align_color_tanimoto>  (3) 
0.077008913243844068

>  <metric>  (3) 
combo

>  <metric_score>  (3) 
0.309

>  <template_pid>  (3) 
4D3H

>  <template_shape_score>  (3) 
0.540

>  <template_color_score>  (3) 
0.077

>  <template_combo_score>  (3) 
0.309

$$$$
