5KTW_shape_pose
     RDKit          3D

 29 32  0  0  0  0  0  0  0  0999 V2000
    5.4039  -24.8396  -28.0826 C   0  0  0  0  0  0  0  0  0  0  0  0
    5.0855  -24.5953  -29.5143 C   0  0  0  0  0  0  0  0  0  0  0  0
    5.4554  -23.5369  -30.1088 O   0  0  0  0  0  0  0  0  0  0  0  0
    4.3519  -25.5256  -30.3014 N   0  0  0  0  0  0  0  0  0  0  0  0
    4.1142  -25.1526  -31.6905 C   0  0  0  0  0  0  0  0  0  0  0  0
    3.1636  -26.0674  -32.4000 C   0  0  0  0  0  0  0  0  0  0  0  0
    2.1009  -26.4845  -31.4546 C   0  0  0  0  0  0  0  0  0  0  0  0
    2.4085  -26.8373  -30.1782 C   0  0  0  0  0  0  0  0  0  0  0  0
    1.2456  -27.1846  -29.5009 C   0  0  0  0  0  0  0  0  0  0  0  0
    1.1651  -27.6053  -28.1554 N   0  0  0  0  0  0  0  0  0  0  0  0
   -0.0061  -27.9588  -27.4613 C   0  0  0  0  0  0  0  0  0  0  0  0
   -1.2749  -27.9517  -27.9884 C   0  0  0  0  0  0  0  0  0  0  0  0
   -2.4025  -28.3083  -27.2668 C   0  0  0  0  0  0  0  0  0  0  0  0
   -2.2831  -28.6959  -25.9484 C   0  0  0  0  0  0  0  0  0  0  0  0
   -1.0228  -28.7142  -25.3877 C   0  0  0  0  0  0  0  0  0  0  0  0
   -0.9272  -29.1276  -23.9941 C   0  0  0  0  0  0  0  0  0  0  0  0
   -1.9950  -29.4431  -23.3824 O   0  0  0  0  0  0  0  0  0  0  0  0
    0.2712  -29.2055  -23.2636 N   0  0  0  0  0  0  0  0  0  0  0  0
    0.3104  -29.6279  -21.8627 C   0  0  0  0  0  0  0  0  0  0  0  0
    0.8581  -28.4505  -21.0767 C   0  0  0  0  0  0  0  0  0  0  0  0
    1.1496  -30.8720  -21.6955 C   0  0  0  0  0  0  0  0  0  0  0  0
    0.0854  -28.3563  -26.1215 C   0  0  0  0  0  0  0  0  0  0  0  0
    0.2731  -27.0193  -30.4268 N   0  0  0  0  0  0  0  0  0  0  0  0
    0.7669  -26.6078  -31.5784 N   0  0  0  0  0  0  0  0  0  0  0  0
   -0.0493  -26.3508  -32.7423 C   0  0  0  0  0  0  0  0  0  0  0  0
   -0.2202  -27.5623  -33.6149 C   0  0  0  0  0  0  0  0  0  0  0  0
   -0.8500  -28.7973  -33.0791 C   0  0  0  0  0  0  0  0  0  0  0  0
    0.6180  -28.7630  -33.4631 C   0  0  0  0  0  0  0  0  0  0  0  0
    3.8539  -26.7840  -29.7813 C   0  0  0  0  0  0  0  0  0  0  0  0
  1  2  1  0
  2  3  2  0
  2  4  1  0
  4  5  1  0
  5  6  1  0
  6  7  1  0
  7  8  2  0
  8  9  1  0
  9 10  1  0
 10 11  1  0
 11 12  2  0
 12 13  1  0
 13 14  2  0
 14 15  1  0
 15 16  1  0
 16 17  2  0
 16 18  1  0
 18 19  1  0
 19 20  1  0
 19 21  1  0
 15 22  2  0
  9 23  2  0
 23 24  1  0
 24 25  1  0
 25 26  1  0
 26 27  1  0
 27 28  1  0
  8 29  1  0
 29  4  1  0
 24  7  1  0
 28 26  1  0
 22 11  1  0
M  END
>  <shape_align_shape_tanimoto>  (1) 
0.66868325377130322

>  <shape_align_color_tanimoto>  (1) 
0.081904281425413214

>  <metric>  (1) 
shape

>  <metric_score>  (1) 
0.669

>  <template_pid>  (1) 
5KTW

>  <template_shape_score>  (1) 
0.669

>  <template_color_score>  (1) 
0.082

>  <template_combo_score>  (1) 
0.375

$$$$
5KTW_color_pose
     RDKit          3D

 29 32  0  0  0  0  0  0  0  0999 V2000
   -4.0880  -33.1097  -24.7272 C   0  0  0  0  0  0  0  0  0  0  0  0
   -3.1835  -32.3684  -25.6496 C   0  0  0  0  0  0  0  0  0  0  0  0
   -3.5566  -32.3422  -26.8661 O   0  0  0  0  0  0  0  0  0  0  0  0
   -1.9867  -31.7277  -25.2370 N   0  0  0  0  0  0  0  0  0  0  0  0
   -1.4652  -31.6973  -23.9093 C   0  0  0  0  0  0  0  0  0  0  0  0
   -1.3044  -30.2967  -23.3671 C   0  0  0  0  0  0  0  0  0  0  0  0
   -1.0819  -29.3007  -24.4389 C   0  0  0  0  0  0  0  0  0  0  0  0
   -1.0471  -29.6447  -25.7921 C   0  0  0  0  0  0  0  0  0  0  0  0
   -0.8307  -28.4889  -26.4813 C   0  0  0  0  0  0  0  0  0  0  0  0
   -0.6996  -28.2165  -27.8694 N   0  0  0  0  0  0  0  0  0  0  0  0
    0.5271  -27.7554  -28.4345 C   0  0  0  0  0  0  0  0  0  0  0  0
    1.6590  -27.6928  -27.6480 C   0  0  0  0  0  0  0  0  0  0  0  0
    2.8342  -27.2151  -28.2251 C   0  0  0  0  0  0  0  0  0  0  0  0
    2.8244  -26.8274  -29.5440 C   0  0  0  0  0  0  0  0  0  0  0  0
    1.7178  -26.8764  -30.3543 C   0  0  0  0  0  0  0  0  0  0  0  0
    1.6818  -26.4646  -31.7389 C   0  0  0  0  0  0  0  0  0  0  0  0
    0.5963  -26.4998  -32.3894 O   0  0  0  0  0  0  0  0  0  0  0  0
    2.8253  -26.0077  -32.4328 N   0  0  0  0  0  0  0  0  0  0  0  0
    2.7848  -25.5836  -33.8319 C   0  0  0  0  0  0  0  0  0  0  0  0
    3.3715  -24.2048  -34.0026 C   0  0  0  0  0  0  0  0  0  0  0  0
    3.5383  -26.6001  -34.6649 C   0  0  0  0  0  0  0  0  0  0  0  0
    0.5500  -27.3574  -29.7599 C   0  0  0  0  0  0  0  0  0  0  0  0
   -0.7433  -27.5110  -25.5524 N   0  0  0  0  0  0  0  0  0  0  0  0
   -0.8909  -27.9801  -24.3297 N   0  0  0  0  0  0  0  0  0  0  0  0
   -0.8481  -27.1239  -23.1600 C   0  0  0  0  0  0  0  0  0  0  0  0
    0.5025  -26.9938  -22.5437 C   0  0  0  0  0  0  0  0  0  0  0  0
    1.6639  -26.4628  -23.2962 C   0  0  0  0  0  0  0  0  0  0  0  0
    1.6303  -27.9097  -22.7963 C   0  0  0  0  0  0  0  0  0  0  0  0
   -1.2238  -31.0316  -26.2665 C   0  0  0  0  0  0  0  0  0  0  0  0
  1  2  1  0
  2  3  2  0
  2  4  1  0
  4  5  1  0
  5  6  1  0
  6  7  1  0
  7  8  2  0
  8  9  1  0
  9 10  1  0
 10 11  1  0
 11 12  2  0
 12 13  1  0
 13 14  2  0
 14 15  1  0
 15 16  1  0
 16 17  2  0
 16 18  1  0
 18 19  1  0
 19 20  1  0
 19 21  1  0
 15 22  2  0
  9 23  2  0
 23 24  1  0
 24 25  1  0
 25 26  1  0
 26 27  1  0
 27 28  1  0
  8 29  1  0
 29  4  1  0
 24  7  1  0
 28 26  1  0
 22 11  1  0
M  END
>  <shape_align_shape_tanimoto>  (2) 
0.48255875868599379

>  <shape_align_color_tanimoto>  (2) 
0.17054282628488129

>  <metric>  (2) 
color

>  <metric_score>  (2) 
0.171

>  <template_pid>  (2) 
5KTW

>  <template_shape_score>  (2) 
0.483

>  <template_color_score>  (2) 
0.171

>  <template_combo_score>  (2) 
0.327

$$$$
5KTW_combo_pose
     RDKit          3D

 29 32  0  0  0  0  0  0  0  0999 V2000
    5.4039  -24.8396  -28.0826 C   0  0  0  0  0  0  0  0  0  0  0  0
    5.0855  -24.5953  -29.5143 C   0  0  0  0  0  0  0  0  0  0  0  0
    5.4554  -23.5369  -30.1088 O   0  0  0  0  0  0  0  0  0  0  0  0
    4.3519  -25.5256  -30.3014 N   0  0  0  0  0  0  0  0  0  0  0  0
    4.1142  -25.1526  -31.6905 C   0  0  0  0  0  0  0  0  0  0  0  0
    3.1636  -26.0674  -32.4000 C   0  0  0  0  0  0  0  0  0  0  0  0
    2.1009  -26.4845  -31.4546 C   0  0  0  0  0  0  0  0  0  0  0  0
    2.4085  -26.8373  -30.1782 C   0  0  0  0  0  0  0  0  0  0  0  0
    1.2456  -27.1846  -29.5009 C   0  0  0  0  0  0  0  0  0  0  0  0
    1.1651  -27.6053  -28.1554 N   0  0  0  0  0  0  0  0  0  0  0  0
   -0.0061  -27.9588  -27.4613 C   0  0  0  0  0  0  0  0  0  0  0  0
   -1.2749  -27.9517  -27.9884 C   0  0  0  0  0  0  0  0  0  0  0  0
   -2.4025  -28.3083  -27.2668 C   0  0  0  0  0  0  0  0  0  0  0  0
   -2.2831  -28.6959  -25.9484 C   0  0  0  0  0  0  0  0  0  0  0  0
   -1.0228  -28.7142  -25.3877 C   0  0  0  0  0  0  0  0  0  0  0  0
   -0.9272  -29.1276  -23.9941 C   0  0  0  0  0  0  0  0  0  0  0  0
   -1.9950  -29.4431  -23.3824 O   0  0  0  0  0  0  0  0  0  0  0  0
    0.2712  -29.2055  -23.2636 N   0  0  0  0  0  0  0  0  0  0  0  0
    0.3104  -29.6279  -21.8627 C   0  0  0  0  0  0  0  0  0  0  0  0
    0.8581  -28.4505  -21.0767 C   0  0  0  0  0  0  0  0  0  0  0  0
    1.1496  -30.8720  -21.6955 C   0  0  0  0  0  0  0  0  0  0  0  0
    0.0854  -28.3563  -26.1215 C   0  0  0  0  0  0  0  0  0  0  0  0
    0.2731  -27.0193  -30.4268 N   0  0  0  0  0  0  0  0  0  0  0  0
    0.7669  -26.6078  -31.5784 N   0  0  0  0  0  0  0  0  0  0  0  0
   -0.0493  -26.3508  -32.7423 C   0  0  0  0  0  0  0  0  0  0  0  0
   -0.2202  -27.5623  -33.6149 C   0  0  0  0  0  0  0  0  0  0  0  0
   -0.8500  -28.7973  -33.0791 C   0  0  0  0  0  0  0  0  0  0  0  0
    0.6180  -28.7630  -33.4631 C   0  0  0  0  0  0  0  0  0  0  0  0
    3.8539  -26.7840  -29.7813 C   0  0  0  0  0  0  0  0  0  0  0  0
  1  2  1  0
  2  3  2  0
  2  4  1  0
  4  5  1  0
  5  6  1  0
  6  7  1  0
  7  8  2  0
  8  9  1  0
  9 10  1  0
 10 11  1  0
 11 12  2  0
 12 13  1  0
 13 14  2  0
 14 15  1  0
 15 16  1  0
 16 17  2  0
 16 18  1  0
 18 19  1  0
 19 20  1  0
 19 21  1  0
 15 22  2  0
  9 23  2  0
 23 24  1  0
 24 25  1  0
 25 26  1  0
 26 27  1  0
 27 28  1  0
  8 29  1  0
 29  4  1  0
 24  7  1  0
 28 26  1  0
 22 11  1  0
M  END
>  <shape_align_shape_tanimoto>  (3) 
0.66868325377130322

>  <shape_align_color_tanimoto>  (3) 
0.081904281425413214

>  <metric>  (3) 
combo

>  <metric_score>  (3) 
0.375

>  <template_pid>  (3) 
5KTW

>  <template_shape_score>  (3) 
0.669

>  <template_color_score>  (3) 
0.082

>  <template_combo_score>  (3) 
0.375

$$$$
