4WK2_shape_pose
     RDKit          3D

 41 41  0  0  0  0  0  0  0  0999 V2000
  -43.0369  164.6104   83.3750 N   0  0  0  0  0  0  0  0  0  0  0  0
  -42.8042  163.1889   83.3361 C   0  0  0  0  0  0  0  0  0  0  0  0
  -43.7401  162.4256   82.9286 N   0  0  0  0  0  0  0  0  0  0  0  0
  -41.5410  162.7318   83.7193 N   0  0  0  0  0  0  0  0  0  0  0  0
  -41.0197  161.4114   83.7405 C   0  0  0  0  0  0  0  0  0  0  0  0
  -40.5880  160.8144   82.4427 C   0  0  0  0  0  0  0  0  0  0  0  0
  -41.5514  160.6077   81.3480 C   0  0  0  0  0  0  0  0  0  0  0  0
  -40.8709  160.0368   80.1125 C   0  0  2  0  0  0  0  0  0  0  0  0
  -41.8729  159.8221   79.0691 N   0  0  0  0  0  0  0  0  0  0  0  0
  -41.8068  160.6173   77.8998 C   0  0  0  0  0  0  0  0  0  0  0  0
  -40.8913  161.5004   77.7578 O   0  0  0  0  0  0  0  0  0  0  0  0
  -42.7599  160.5134   76.7635 C   0  0  0  0  0  0  0  0  0  0  0  0
  -42.4058  161.4855   75.7399 N   0  0  0  0  0  0  0  0  0  0  0  0
  -40.1158  158.8114   80.3710 C   0  0  0  0  0  0  0  0  0  0  0  0
  -39.0618  158.7432   81.0922 O   0  0  0  0  0  0  0  0  0  0  0  0
  -40.5096  157.5383   79.8212 N   0  0  0  0  0  0  0  0  0  0  0  0
  -39.6172  156.4313   80.1999 C   0  0  0  0  0  0  0  0  0  0  0  0
  -38.2453  156.6791   79.6774 C   0  0  0  0  0  0  0  0  0  0  0  0
  -37.9409  157.6744   78.9732 O   0  0  0  0  0  0  0  0  0  0  0  0
  -37.2614  155.6889   80.0364 N   0  0  0  0  0  0  0  0  0  0  0  0
  -35.8502  155.8599   79.5351 C   0  0  1  0  0  0  0  0  0  0  0  0
  -35.2457  156.6235   80.7108 C   0  0  0  0  0  0  0  0  0  0  0  0
  -33.8683  157.0321   80.6156 C   0  0  0  0  0  0  0  0  0  0  0  0
  -33.0876  156.9489   79.6401 O   0  0  0  0  0  0  0  0  0  0  0  0
  -33.2869  157.6119   81.7756 O   0  0  0  0  0  0  0  0  0  0  0  0
  -35.3627  154.4669   79.4727 C   0  0  0  0  0  0  0  0  0  0  0  0
  -36.1693  153.6152   80.0266 O   0  0  0  0  0  0  0  0  0  0  0  0
  -34.1589  154.0130   78.8947 N   0  0  0  0  0  0  0  0  0  0  0  0
  -33.7859  152.5606   78.9463 C   0  0  1  0  0  0  0  0  0  0  0  0
  -33.3701  152.2609   80.3485 C   0  0  0  0  0  0  0  0  0  0  0  0
  -34.3056  152.4478   81.3311 O   0  0  0  0  0  0  0  0  0  0  0  0
  -34.7631  151.7448   78.2927 C   0  0  0  0  0  0  0  0  0  0  0  0
  -35.7940  152.4263   77.8011 O   0  0  0  0  0  0  0  0  0  0  0  0
  -34.8968  150.3768   78.0408 N   0  0  0  0  0  0  0  0  0  0  0  0
  -36.1556  149.9455   77.3115 C   0  0  0  0  0  0  0  0  0  0  0  0
  -35.8324  148.6492   76.6605 C   0  0  0  0  0  0  0  0  0  0  0  0
  -34.3559  148.4311   76.8315 C   0  0  0  0  0  0  0  0  0  0  0  0
  -34.2052  149.1604   78.2383 C   0  0  1  0  0  0  0  0  0  0  0  0
  -32.7679  149.1356   78.4558 C   0  0  0  0  0  0  0  0  0  0  0  0
  -32.1931  149.0268   79.5875 O   0  0  0  0  0  0  0  0  0  0  0  0
  -31.8695  149.2338   77.3750 O   0  0  0  0  0  0  0  0  0  0  0  0
  1  2  1  0
  2  3  2  0
  2  4  1  0
  4  5  1  0
  5  6  1  0
  6  7  1  0
  8  7  1  1
  8  9  1  0
  9 10  1  0
 10 11  2  0
 10 12  1  0
 12 13  1  0
  8 14  1  0
 14 15  2  0
 14 16  1  0
 16 17  1  0
 17 18  1  0
 18 19  2  0
 18 20  1  0
 20 21  1  0
 21 22  1  1
 22 23  1  0
 23 24  2  0
 23 25  1  0
 21 26  1  0
 26 27  2  0
 26 28  1  0
 28 29  1  0
 29 30  1  1
 30 31  1  0
 29 32  1  0
 32 33  2  0
 32 34  1  0
 34 35  1  0
 35 36  1  0
 36 37  1  0
 37 38  1  0
 38 39  1  6
 39 40  2  0
 39 41  1  0
 38 34  1  0
M  CHG  4   3   1  13   1  25  -1  41  -1
M  END
>  <shape_align_shape_tanimoto>  (1) 
0.45699957437204902

>  <shape_align_color_tanimoto>  (1) 
0.0065281003517145414

>  <metric>  (1) 
shape

>  <metric_score>  (1) 
0.457

>  <template_pid>  (1) 
4WK2

>  <template_shape_score>  (1) 
0.457

>  <template_color_score>  (1) 
0.007

>  <template_combo_score>  (1) 
0.232

$$$$
4WK2_color_pose
     RDKit          3D

 41 41  0  0  0  0  0  0  0  0999 V2000
  -47.4394  163.3843   84.7921 N   0  0  0  0  0  0  0  0  0  0  0  0
  -46.7291  163.0351   83.5860 C   0  0  0  0  0  0  0  0  0  0  0  0
  -47.0861  161.9990   82.9101 N   0  0  0  0  0  0  0  0  0  0  0  0
  -45.6403  163.8567   83.2032 N   0  0  0  0  0  0  0  0  0  0  0  0
  -44.7976  163.6630   82.0615 C   0  0  0  0  0  0  0  0  0  0  0  0
  -43.8611  162.4797   82.1510 C   0  0  0  0  0  0  0  0  0  0  0  0
  -42.9613  162.7286   83.3364 C   0  0  0  0  0  0  0  0  0  0  0  0
  -41.9367  161.6899   83.6028 C   0  0  2  0  0  0  0  0  0  0  0  0
  -41.1891  162.1177   84.7653 N   0  0  0  0  0  0  0  0  0  0  0  0
  -41.1037  161.1864   85.8384 C   0  0  0  0  0  0  0  0  0  0  0  0
  -41.6333  160.0766   85.7671 O   0  0  0  0  0  0  0  0  0  0  0  0
  -40.3553  161.5535   87.0786 C   0  0  0  0  0  0  0  0  0  0  0  0
  -39.8140  162.8919   87.0311 N   0  0  0  0  0  0  0  0  0  0  0  0
  -40.9661  161.5048   82.4875 C   0  0  0  0  0  0  0  0  0  0  0  0
  -41.4633  161.0692   81.4015 O   0  0  0  0  0  0  0  0  0  0  0  0
  -39.5801  161.7875   82.6084 N   0  0  0  0  0  0  0  0  0  0  0  0
  -38.7677  161.5372   81.4140 C   0  0  0  0  0  0  0  0  0  0  0  0
  -38.8345  160.0950   81.0634 C   0  0  0  0  0  0  0  0  0  0  0  0
  -39.5356  159.3751   81.8431 O   0  0  0  0  0  0  0  0  0  0  0  0
  -38.1591  159.5312   79.9277 N   0  0  0  0  0  0  0  0  0  0  0  0
  -38.3352  158.1057   79.7478 C   0  0  1  0  0  0  0  0  0  0  0  0
  -38.8812  157.8610   78.3537 C   0  0  0  0  0  0  0  0  0  0  0  0
  -40.1680  158.5438   78.2028 C   0  0  0  0  0  0  0  0  0  0  0  0
  -40.7565  159.2458   79.0273 O   0  0  0  0  0  0  0  0  0  0  0  0
  -40.8134  158.3736   76.9552 O   0  0  0  0  0  0  0  0  0  0  0  0
  -37.0326  157.3536   79.8477 C   0  0  0  0  0  0  0  0  0  0  0  0
  -35.9261  157.9445   79.8413 O   0  0  0  0  0  0  0  0  0  0  0  0
  -37.0996  155.8973   79.9570 N   0  0  0  0  0  0  0  0  0  0  0  0
  -35.8631  155.2263   80.0340 C   0  0  1  0  0  0  0  0  0  0  0  0
  -35.4416  155.0941   81.5353 C   0  0  0  0  0  0  0  0  0  0  0  0
  -36.4132  154.3694   82.2204 O   0  0  0  0  0  0  0  0  0  0  0  0
  -35.7550  153.8692   79.5276 C   0  0  0  0  0  0  0  0  0  0  0  0
  -34.5040  153.5224   79.2977 O   0  0  0  0  0  0  0  0  0  0  0  0
  -36.6758  152.8807   79.2374 N   0  0  0  0  0  0  0  0  0  0  0  0
  -38.1265  152.7418   79.3744 C   0  0  0  0  0  0  0  0  0  0  0  0
  -38.4678  152.4461   77.9179 C   0  0  0  0  0  0  0  0  0  0  0  0
  -37.2964  151.5867   77.4376 C   0  0  0  0  0  0  0  0  0  0  0  0
  -36.3548  151.5593   78.6327 C   0  0  1  0  0  0  0  0  0  0  0  0
  -34.9643  151.3806   78.2609 C   0  0  0  0  0  0  0  0  0  0  0  0
  -34.6440  151.5654   77.0456 O   0  0  0  0  0  0  0  0  0  0  0  0
  -33.9621  151.0234   79.1505 O   0  0  0  0  0  0  0  0  0  0  0  0
  1  2  1  0
  2  3  2  0
  2  4  1  0
  4  5  1  0
  5  6  1  0
  6  7  1  0
  8  7  1  6
  8  9  1  0
  9 10  1  0
 10 11  2  0
 10 12  1  0
 12 13  1  0
  8 14  1  0
 14 15  2  0
 14 16  1  0
 16 17  1  0
 17 18  1  0
 18 19  2  0
 18 20  1  0
 20 21  1  0
 21 22  1  6
 22 23  1  0
 23 24  2  0
 23 25  1  0
 21 26  1  0
 26 27  2  0
 26 28  1  0
 28 29  1  0
 29 30  1  1
 30 31  1  0
 29 32  1  0
 32 33  2  0
 32 34  1  0
 34 35  1  0
 35 36  1  0
 36 37  1  0
 37 38  1  0
 38 39  1  6
 39 40  2  0
 39 41  1  0
 38 34  1  0
M  CHG  4   3   1  13   1  25  -1  41  -1
M  END
>  <shape_align_shape_tanimoto>  (2) 
0.38082540323604436

>  <shape_align_color_tanimoto>  (2) 
0.048396779215590394

>  <metric>  (2) 
color

>  <metric_score>  (2) 
0.048

>  <template_pid>  (2) 
4WK2

>  <template_shape_score>  (2) 
0.381

>  <template_color_score>  (2) 
0.048

>  <template_combo_score>  (2) 
0.215

$$$$
4WK2_combo_pose
     RDKit          3D

 41 41  0  0  0  0  0  0  0  0999 V2000
  -43.0369  164.6104   83.3750 N   0  0  0  0  0  0  0  0  0  0  0  0
  -42.8042  163.1889   83.3361 C   0  0  0  0  0  0  0  0  0  0  0  0
  -43.7401  162.4256   82.9286 N   0  0  0  0  0  0  0  0  0  0  0  0
  -41.5410  162.7318   83.7193 N   0  0  0  0  0  0  0  0  0  0  0  0
  -41.0197  161.4114   83.7405 C   0  0  0  0  0  0  0  0  0  0  0  0
  -40.5880  160.8144   82.4427 C   0  0  0  0  0  0  0  0  0  0  0  0
  -41.5514  160.6077   81.3480 C   0  0  0  0  0  0  0  0  0  0  0  0
  -40.8709  160.0368   80.1125 C   0  0  2  0  0  0  0  0  0  0  0  0
  -41.8729  159.8221   79.0691 N   0  0  0  0  0  0  0  0  0  0  0  0
  -41.8068  160.6173   77.8998 C   0  0  0  0  0  0  0  0  0  0  0  0
  -40.8913  161.5004   77.7578 O   0  0  0  0  0  0  0  0  0  0  0  0
  -42.7599  160.5134   76.7635 C   0  0  0  0  0  0  0  0  0  0  0  0
  -42.4058  161.4855   75.7399 N   0  0  0  0  0  0  0  0  0  0  0  0
  -40.1158  158.8114   80.3710 C   0  0  0  0  0  0  0  0  0  0  0  0
  -39.0618  158.7432   81.0922 O   0  0  0  0  0  0  0  0  0  0  0  0
  -40.5096  157.5383   79.8212 N   0  0  0  0  0  0  0  0  0  0  0  0
  -39.6172  156.4313   80.1999 C   0  0  0  0  0  0  0  0  0  0  0  0
  -38.2453  156.6791   79.6774 C   0  0  0  0  0  0  0  0  0  0  0  0
  -37.9409  157.6744   78.9732 O   0  0  0  0  0  0  0  0  0  0  0  0
  -37.2614  155.6889   80.0364 N   0  0  0  0  0  0  0  0  0  0  0  0
  -35.8502  155.8599   79.5351 C   0  0  1  0  0  0  0  0  0  0  0  0
  -35.2457  156.6235   80.7108 C   0  0  0  0  0  0  0  0  0  0  0  0
  -33.8683  157.0321   80.6156 C   0  0  0  0  0  0  0  0  0  0  0  0
  -33.0876  156.9489   79.6401 O   0  0  0  0  0  0  0  0  0  0  0  0
  -33.2869  157.6119   81.7756 O   0  0  0  0  0  0  0  0  0  0  0  0
  -35.3627  154.4669   79.4727 C   0  0  0  0  0  0  0  0  0  0  0  0
  -36.1693  153.6152   80.0266 O   0  0  0  0  0  0  0  0  0  0  0  0
  -34.1589  154.0130   78.8947 N   0  0  0  0  0  0  0  0  0  0  0  0
  -33.7859  152.5606   78.9463 C   0  0  1  0  0  0  0  0  0  0  0  0
  -33.3701  152.2609   80.3485 C   0  0  0  0  0  0  0  0  0  0  0  0
  -34.3056  152.4478   81.3311 O   0  0  0  0  0  0  0  0  0  0  0  0
  -34.7631  151.7448   78.2927 C   0  0  0  0  0  0  0  0  0  0  0  0
  -35.7940  152.4263   77.8011 O   0  0  0  0  0  0  0  0  0  0  0  0
  -34.8968  150.3768   78.0408 N   0  0  0  0  0  0  0  0  0  0  0  0
  -36.1556  149.9455   77.3115 C   0  0  0  0  0  0  0  0  0  0  0  0
  -35.8324  148.6492   76.6605 C   0  0  0  0  0  0  0  0  0  0  0  0
  -34.3559  148.4311   76.8315 C   0  0  0  0  0  0  0  0  0  0  0  0
  -34.2052  149.1604   78.2383 C   0  0  1  0  0  0  0  0  0  0  0  0
  -32.7679  149.1356   78.4558 C   0  0  0  0  0  0  0  0  0  0  0  0
  -32.1931  149.0268   79.5875 O   0  0  0  0  0  0  0  0  0  0  0  0
  -31.8695  149.2338   77.3750 O   0  0  0  0  0  0  0  0  0  0  0  0
  1  2  1  0
  2  3  2  0
  2  4  1  0
  4  5  1  0
  5  6  1  0
  6  7  1  0
  8  7  1  1
  8  9  1  0
  9 10  1  0
 10 11  2  0
 10 12  1  0
 12 13  1  0
  8 14  1  0
 14 15  2  0
 14 16  1  0
 16 17  1  0
 17 18  1  0
 18 19  2  0
 18 20  1  0
 20 21  1  0
 21 22  1  1
 22 23  1  0
 23 24  2  0
 23 25  1  0
 21 26  1  0
 26 27  2  0
 26 28  1  0
 28 29  1  0
 29 30  1  1
 30 31  1  0
 29 32  1  0
 32 33  2  0
 32 34  1  0
 34 35  1  0
 35 36  1  0
 36 37  1  0
 37 38  1  0
 38 39  1  6
 39 40  2  0
 39 41  1  0
 38 34  1  0
M  CHG  4   3   1  13   1  25  -1  41  -1
M  END
>  <shape_align_shape_tanimoto>  (3) 
0.45699957437204902

>  <shape_align_color_tanimoto>  (3) 
0.0065281003517145414

>  <metric>  (3) 
combo

>  <metric_score>  (3) 
0.232

>  <template_pid>  (3) 
4WK2

>  <template_shape_score>  (3) 
0.457

>  <template_color_score>  (3) 
0.007

>  <template_combo_score>  (3) 
0.232

$$$$
