5EOK_shape_pose
     RDKit          3D

 79 83  0  0  0  0  0  0  0  0999 V2000
  -36.7238  148.2007   79.6110 C   0  0  0  0  0  0  0  0  0  0  0  0
  -37.6627  149.2578   79.1633 C   0  0  0  0  0  0  0  0  0  0  0  0
  -37.1160  150.6852   79.1004 C   0  0  2  0  0  0  0  0  0  0  0  0
  -38.3444  151.4961   78.6503 C   0  0  0  0  0  0  0  0  0  0  0  0
  -36.0441  150.7753   78.1147 C   0  0  2  0  0  0  0  0  0  0  0  0
  -34.9011  149.8846   78.3879 N   0  0  0  0  0  0  0  0  0  0  0  0
  -33.7704  150.3944   79.1210 C   0  0  0  0  0  0  0  0  0  0  0  0
  -33.7203  151.5743   79.5531 O   0  0  0  0  0  0  0  0  0  0  0  0
  -32.6177  149.5063   79.3776 C   0  0  1  0  0  0  0  0  0  0  0  0
  -31.5098  150.3747   79.8007 N   0  0  0  0  0  0  0  0  0  0  0  0
  -32.8309  148.5795   80.5655 C   0  0  0  0  0  0  0  0  0  0  0  0
  -33.0334  149.3294   81.8268 C   0  0  0  0  0  0  0  0  0  0  0  0
  -34.1663  149.7996   82.4315 C   0  0  0  0  0  0  0  0  0  0  0  0
  -33.8497  150.4237   83.5881 N   0  0  0  0  0  0  0  0  0  0  0  0
  -32.5100  150.3565   83.7306 C   0  0  0  0  0  0  0  0  0  0  0  0
  -32.0236  149.7005   82.6745 N   0  0  0  0  0  0  0  0  0  0  0  0
  -35.5332  152.0442   77.6059 C   0  0  0  0  0  0  0  0  0  0  0  0
  -34.3212  151.9630   77.1336 O   0  0  0  0  0  0  0  0  0  0  0  0
  -36.0933  153.3099   77.5299 N   0  0  0  0  0  0  0  0  0  0  0  0
  -35.3597  154.3836   76.9205 C   0  0  1  0  0  0  0  0  0  0  0  0
  -36.1407  154.9512   75.7240 C   0  0  0  0  0  0  0  0  0  0  0  0
  -35.4077  156.0583   75.0792 C   0  0  0  0  0  0  0  0  0  0  0  0
  -34.4181  155.7857   74.1314 C   0  0  0  0  0  0  0  0  0  0  0  0
  -33.7275  156.7914   73.4949 C   0  0  0  0  0  0  0  0  0  0  0  0
  -33.9841  158.1228   73.7689 C   0  0  0  0  0  0  0  0  0  0  0  0
  -33.2911  159.1462   73.1362 O   0  0  0  0  0  0  0  0  0  0  0  0
  -34.9723  158.4153   74.7157 C   0  0  0  0  0  0  0  0  0  0  0  0
  -35.6688  157.4077   75.3571 C   0  0  0  0  0  0  0  0  0  0  0  0
  -34.8842  155.3977   77.8372 C   0  0  0  0  0  0  0  0  0  0  0  0
  -34.2100  156.3711   77.2838 O   0  0  0  0  0  0  0  0  0  0  0  0
  -35.0056  155.5420   79.2195 N   0  0  0  0  0  0  0  0  0  0  0  0
  -34.3935  156.7515   79.8776 C   0  0  0  0  0  0  0  0  0  0  0  0
  -33.7712  156.1675   81.1257 C   0  0  0  0  0  0  0  0  0  0  0  0
  -34.4784  154.8520   81.3373 C   0  0  0  0  0  0  0  0  0  0  0  0
  -35.5654  154.8504   80.3213 C   0  0  1  0  0  0  0  0  0  0  0  0
  -36.8662  155.3784   80.7613 C   0  0  0  0  0  0  0  0  0  0  0  0
  -37.7515  155.5381   79.8449 O   0  0  0  0  0  0  0  0  0  0  0  0
  -37.2257  155.7247   82.0790 N   0  0  0  0  0  0  0  0  0  0  0  0
  -38.5542  156.2300   82.3435 C   0  0  1  0  0  0  0  0  0  0  0  0
  -38.9799  155.7591   83.6952 C   0  0  0  0  0  0  0  0  0  0  0  0
  -38.0803  156.2722   84.7631 C   0  0  0  0  0  0  0  0  0  0  0  0
  -37.1042  157.0331   84.5592 O   0  0  0  0  0  0  0  0  0  0  0  0
  -38.3466  155.8787   86.0690 O   0  0  0  0  0  0  0  0  0  0  0  0
  -38.5982  157.7170   82.2017 C   0  0  0  0  0  0  0  0  0  0  0  0
  -37.5309  158.3328   81.8498 O   0  0  0  0  0  0  0  0  0  0  0  0
  -39.7809  158.4747   82.4397 N   0  0  0  0  0  0  0  0  0  0  0  0
  -39.6387  159.9221   82.2289 C   0  0  1  0  0  0  0  0  0  0  0  0
  -40.5933  160.1692   81.0341 C   0  0  0  0  0  0  0  0  0  0  0  0
  -40.2113  159.3950   79.8476 C   0  0  0  0  0  0  0  0  0  0  0  0
  -39.3399  159.8678   78.8603 C   0  0  0  0  0  0  0  0  0  0  0  0
  -39.0410  159.0904   77.7771 C   0  0  0  0  0  0  0  0  0  0  0  0
  -39.5748  157.8196   77.6056 C   0  0  0  0  0  0  0  0  0  0  0  0
  -40.4411  157.3338   78.5753 C   0  0  0  0  0  0  0  0  0  0  0  0
  -40.7230  158.1356   79.6512 C   0  0  0  0  0  0  0  0  0  0  0  0
  -40.1217  160.7104   83.3751 C   0  0  0  0  0  0  0  0  0  0  0  0
  -40.7226  160.0333   84.2872 O   0  0  0  0  0  0  0  0  0  0  0  0
  -39.9621  162.1046   83.5204 N   0  0  0  0  0  0  0  0  0  0  0  0
  -39.2823  163.0613   82.6393 C   0  0  0  0  0  0  0  0  0  0  0  0
  -38.9845  164.2978   83.4172 C   0  0  0  0  0  0  0  0  0  0  0  0
  -39.3617  163.9423   84.8367 C   0  0  0  0  0  0  0  0  0  0  0  0
  -40.4678  162.9021   84.6540 C   0  0  1  0  0  0  0  0  0  0  0  0
  -41.7393  163.5846   84.3443 C   0  0  0  0  0  0  0  0  0  0  0  0
  -42.2087  164.3184   85.2897 O   0  0  0  0  0  0  0  0  0  0  0  0
  -42.4359  163.4837   83.1207 N   0  0  0  0  0  0  0  0  0  0  0  0
  -43.6924  164.1935   82.8480 C   0  0  2  0  0  0  0  0  0  0  0  0
  -44.6792  163.1782   82.4213 C   0  0  0  0  0  0  0  0  0  0  0  0
  -44.3154  161.9572   82.3506 O   0  0  0  0  0  0  0  0  0  0  0  0
  -46.0216  163.4988   82.0828 N   0  0  0  0  0  0  0  0  0  0  0  0
  -46.9770  162.4554   81.6524 C   0  0  1  0  0  0  0  0  0  0  0  0
  -48.0824  162.4839   82.6591 C   0  0  0  0  0  0  0  0  0  0  0  0
  -49.1267  161.4881   82.3912 C   0  0  0  0  0  0  0  0  0  0  0  0
  -50.1861  161.4466   83.0827 O   0  0  0  0  0  0  0  0  0  0  0  0
  -49.0438  160.5297   81.3798 O   0  0  0  0  0  0  0  0  0  0  0  0
  -47.4125  162.7432   80.2630 C   0  0  0  0  0  0  0  0  0  0  0  0
  -47.9626  161.9256   79.4989 O   0  0  0  0  0  0  0  0  0  0  0  0
  -47.1981  164.0283   79.7437 O   0  0  0  0  0  0  0  0  0  0  0  0
  -43.4826  165.1344   81.6759 C   0  0  1  0  0  0  0  0  0  0  0  0
  -43.1433  164.3107   80.4601 C   0  0  0  0  0  0  0  0  0  0  0  0
  -44.6550  165.8121   81.4259 O   0  0  0  0  0  0  0  0  0  0  0  0
  1  2  1  0
  2  3  1  0
  3  4  1  6
  3  5  1  0
  5  6  1  1
  6  7  1  0
  7  8  2  0
  7  9  1  0
  9 10  1  1
  9 11  1  0
 11 12  1  0
 12 13  2  0
 13 14  1  0
 14 15  1  0
 15 16  2  0
  5 17  1  0
 17 18  2  0
 17 19  1  0
 19 20  1  0
 20 21  1  6
 21 22  1  0
 22 23  2  0
 23 24  1  0
 24 25  2  0
 25 26  1  0
 25 27  1  0
 27 28  2  0
 20 29  1  0
 29 30  2  0
 29 31  1  0
 31 32  1  0
 32 33  1  0
 33 34  1  0
 34 35  1  0
 35 36  1  1
 36 37  2  0
 36 38  1  0
 38 39  1  0
 39 40  1  1
 40 41  1  0
 41 42  2  0
 41 43  1  0
 39 44  1  0
 44 45  2  0
 44 46  1  0
 46 47  1  0
 47 48  1  6
 48 49  1  0
 49 50  2  0
 50 51  1  0
 51 52  2  0
 52 53  1  0
 53 54  2  0
 47 55  1  0
 55 56  2  0
 55 57  1  0
 57 58  1  0
 58 59  1  0
 59 60  1  0
 60 61  1  0
 61 62  1  6
 62 63  2  0
 62 64  1  0
 65 64  1  6
 65 66  1  0
 66 67  2  0
 66 68  1  0
 68 69  1  0
 69 70  1  1
 70 71  1  0
 71 72  2  0
 71 73  1  0
 69 74  1  0
 74 75  2  0
 74 76  1  0
 65 77  1  0
 77 78  1  6
 77 79  1  0
 16 12  1  0
 28 22  1  0
 35 31  1  0
 54 49  1  0
 61 57  1  0
M  CHG  4  10   1  43  -1  73  -1  76  -1
M  END
>  <shape_align_shape_tanimoto>  (1) 
0.33410567373058414

>  <shape_align_color_tanimoto>  (1) 
0.025879166606258212

>  <metric>  (1) 
shape

>  <metric_score>  (1) 
0.334

>  <template_pid>  (1) 
5EOK

>  <template_shape_score>  (1) 
0.334

>  <template_color_score>  (1) 
0.026

>  <template_combo_score>  (1) 
0.180

$$$$
5EOK_color_pose
     RDKit          3D

 79 83  0  0  0  0  0  0  0  0999 V2000
  -41.6927  163.2697   78.6410 C   0  0  0  0  0  0  0  0  0  0  0  0
  -42.0004  161.8870   78.1806 C   0  0  0  0  0  0  0  0  0  0  0  0
  -43.4139  161.4533   78.2910 C   0  0  2  0  0  0  0  0  0  0  0  0
  -44.3839  162.3385   77.5099 C   0  0  0  0  0  0  0  0  0  0  0  0
  -43.9424  161.0434   79.5997 C   0  0  2  0  0  0  0  0  0  0  0  0
  -43.9201  161.9929   80.6827 N   0  0  0  0  0  0  0  0  0  0  0  0
  -45.0538  162.4447   81.3717 C   0  0  0  0  0  0  0  0  0  0  0  0
  -46.1688  161.9124   80.9585 O   0  0  0  0  0  0  0  0  0  0  0  0
  -45.1848  163.3871   82.4501 C   0  0  1  0  0  0  0  0  0  0  0  0
  -46.3071  163.0371   83.3376 N   0  0  0  0  0  0  0  0  0  0  0  0
  -44.0396  164.0077   83.1268 C   0  0  0  0  0  0  0  0  0  0  0  0
  -43.1752  164.8663   82.3033 C   0  0  0  0  0  0  0  0  0  0  0  0
  -43.4698  166.2431   82.1434 C   0  0  0  0  0  0  0  0  0  0  0  0
  -42.5387  166.7829   81.3433 N   0  0  0  0  0  0  0  0  0  0  0  0
  -41.6663  165.8117   80.9879 C   0  0  0  0  0  0  0  0  0  0  0  0
  -42.0827  164.6926   81.5801 N   0  0  0  0  0  0  0  0  0  0  0  0
  -43.5317  159.6702   80.0215 C   0  0  0  0  0  0  0  0  0  0  0  0
  -43.2291  158.8931   79.0766 O   0  0  0  0  0  0  0  0  0  0  0  0
  -43.4703  159.2059   81.3408 N   0  0  0  0  0  0  0  0  0  0  0  0
  -43.0357  157.7954   81.6115 C   0  0  1  0  0  0  0  0  0  0  0  0
  -42.8712  157.7375   83.0887 C   0  0  0  0  0  0  0  0  0  0  0  0
  -42.4845  156.4795   83.7072 C   0  0  0  0  0  0  0  0  0  0  0  0
  -41.2209  155.9946   83.9046 C   0  0  0  0  0  0  0  0  0  0  0  0
  -40.9390  154.7878   84.5210 C   0  0  0  0  0  0  0  0  0  0  0  0
  -41.9820  153.9893   84.9846 C   0  0  0  0  0  0  0  0  0  0  0  0
  -41.7299  152.7848   85.6013 O   0  0  0  0  0  0  0  0  0  0  0  0
  -43.2558  154.4522   84.8010 C   0  0  0  0  0  0  0  0  0  0  0  0
  -43.5296  155.6629   84.1812 C   0  0  0  0  0  0  0  0  0  0  0  0
  -43.9913  156.8973   80.9832 C   0  0  0  0  0  0  0  0  0  0  0  0
  -45.1165  157.4469   80.6382 O   0  0  0  0  0  0  0  0  0  0  0  0
  -43.9188  155.5241   80.6658 N   0  0  0  0  0  0  0  0  0  0  0  0
  -45.1231  154.9341   79.9907 C   0  0  0  0  0  0  0  0  0  0  0  0
  -45.0361  153.4650   80.1252 C   0  0  0  0  0  0  0  0  0  0  0  0
  -43.6984  153.1552   80.7072 C   0  0  0  0  0  0  0  0  0  0  0  0
  -42.9671  154.4887   80.7790 C   0  0  1  0  0  0  0  0  0  0  0  0
  -41.8567  154.5140   79.7690 C   0  0  0  0  0  0  0  0  0  0  0  0
  -41.1846  153.4657   79.6272 O   0  0  0  0  0  0  0  0  0  0  0  0
  -41.5357  155.6406   78.9842 N   0  0  0  0  0  0  0  0  0  0  0  0
  -40.5083  155.7354   78.0002 C   0  0  1  0  0  0  0  0  0  0  0  0
  -40.9228  156.4338   76.7279 C   0  0  0  0  0  0  0  0  0  0  0  0
  -42.0307  155.7778   76.0351 C   0  0  0  0  0  0  0  0  0  0  0  0
  -42.5797  154.7071   76.4743 O   0  0  0  0  0  0  0  0  0  0  0  0
  -42.5150  156.3288   74.8548 O   0  0  0  0  0  0  0  0  0  0  0  0
  -39.1894  156.2142   78.4761 C   0  0  0  0  0  0  0  0  0  0  0  0
  -38.3237  156.4237   77.5519 O   0  0  0  0  0  0  0  0  0  0  0  0
  -38.8115  156.4455   79.8136 N   0  0  0  0  0  0  0  0  0  0  0  0
  -37.4675  156.8949   80.0694 C   0  0  1  0  0  0  0  0  0  0  0  0
  -37.4344  157.8113   81.2310 C   0  0  0  0  0  0  0  0  0  0  0  0
  -38.1627  159.0517   81.2306 C   0  0  0  0  0  0  0  0  0  0  0  0
  -39.4797  159.1762   81.6917 C   0  0  0  0  0  0  0  0  0  0  0  0
  -40.0736  160.4178   81.7038 C   0  0  0  0  0  0  0  0  0  0  0  0
  -39.3953  161.5399   81.2701 C   0  0  0  0  0  0  0  0  0  0  0  0
  -38.0995  161.4427   80.8098 C   0  0  0  0  0  0  0  0  0  0  0  0
  -37.4916  160.2057   80.7915 C   0  0  0  0  0  0  0  0  0  0  0  0
  -36.4914  155.7766   80.3285 C   0  0  0  0  0  0  0  0  0  0  0  0
  -35.2774  156.2022   80.4375 O   0  0  0  0  0  0  0  0  0  0  0  0
  -36.8075  154.4116   80.4477 N   0  0  0  0  0  0  0  0  0  0  0  0
  -38.0436  153.6875   80.3879 C   0  0  0  0  0  0  0  0  0  0  0  0
  -37.7740  152.3179   80.9243 C   0  0  0  0  0  0  0  0  0  0  0  0
  -36.4055  152.3653   81.4858 C   0  0  0  0  0  0  0  0  0  0  0  0
  -35.7279  153.4171   80.6773 C   0  0  1  0  0  0  0  0  0  0  0  0
  -35.1872  152.9348   79.3984 C   0  0  0  0  0  0  0  0  0  0  0  0
  -34.2746  152.0613   79.3843 O   0  0  0  0  0  0  0  0  0  0  0  0
  -35.7259  153.4838   78.1894 N   0  0  0  0  0  0  0  0  0  0  0  0
  -35.2359  153.0458   76.8793 C   0  0  2  0  0  0  0  0  0  0  0  0
  -34.9525  154.1987   76.0160 C   0  0  0  0  0  0  0  0  0  0  0  0
  -35.2489  155.3498   76.4850 O   0  0  0  0  0  0  0  0  0  0  0  0
  -34.3891  154.1716   74.7303 N   0  0  0  0  0  0  0  0  0  0  0  0
  -34.1766  155.4435   73.9991 C   0  0  1  0  0  0  0  0  0  0  0  0
  -32.7474  155.5560   73.5573 C   0  0  0  0  0  0  0  0  0  0  0  0
  -32.4595  156.8092   72.8343 C   0  0  0  0  0  0  0  0  0  0  0  0
  -31.3060  156.9245   72.3026 O   0  0  0  0  0  0  0  0  0  0  0  0
  -33.3301  157.8682   72.6852 O   0  0  0  0  0  0  0  0  0  0  0  0
  -35.0269  155.3483   72.7613 C   0  0  0  0  0  0  0  0  0  0  0  0
  -35.4691  154.2356   72.3541 O   0  0  0  0  0  0  0  0  0  0  0  0
  -35.3729  156.4561   72.0063 O   0  0  0  0  0  0  0  0  0  0  0  0
  -36.3853  152.2093   76.2909 C   0  0  1  0  0  0  0  0  0  0  0  0
  -36.0722  151.6249   74.9561 C   0  0  0  0  0  0  0  0  0  0  0  0
  -36.5869  151.1799   77.2359 O   0  0  0  0  0  0  0  0  0  0  0  0
  1  2  1  0
  2  3  1  0
  3  4  1  1
  3  5  1  0
  5  6  1  1
  6  7  1  0
  7  8  2  0
  7  9  1  0
  9 10  1  1
  9 11  1  0
 11 12  1  0
 12 13  2  0
 13 14  1  0
 14 15  1  0
 15 16  2  0
  5 17  1  0
 17 18  2  0
 17 19  1  0
 19 20  1  0
 20 21  1  1
 21 22  1  0
 22 23  2  0
 23 24  1  0
 24 25  2  0
 25 26  1  0
 25 27  1  0
 27 28  2  0
 20 29  1  0
 29 30  2  0
 29 31  1  0
 31 32  1  0
 32 33  1  0
 33 34  1  0
 34 35  1  0
 35 36  1  6
 36 37  2  0
 36 38  1  0
 38 39  1  0
 39 40  1  6
 40 41  1  0
 41 42  2  0
 41 43  1  0
 39 44  1  0
 44 45  2  0
 44 46  1  0
 46 47  1  0
 47 48  1  1
 48 49  1  0
 49 50  2  0
 50 51  1  0
 51 52  2  0
 52 53  1  0
 53 54  2  0
 47 55  1  0
 55 56  2  0
 55 57  1  0
 57 58  1  0
 58 59  1  0
 59 60  1  0
 60 61  1  0
 61 62  1  6
 62 63  2  0
 62 64  1  0
 65 64  1  1
 65 66  1  0
 66 67  2  0
 66 68  1  0
 68 69  1  0
 69 70  1  6
 70 71  1  0
 71 72  2  0
 71 73  1  0
 69 74  1  0
 74 75  2  0
 74 76  1  0
 65 77  1  0
 77 78  1  6
 77 79  1  0
 16 12  1  0
 28 22  1  0
 35 31  1  0
 54 49  1  0
 61 57  1  0
M  CHG  4  10   1  43  -1  73  -1  76  -1
M  END
>  <shape_align_shape_tanimoto>  (2) 
0.23056170525097996

>  <shape_align_color_tanimoto>  (2) 
0.04826359404590292

>  <metric>  (2) 
color

>  <metric_score>  (2) 
0.048

>  <template_pid>  (2) 
5EOK

>  <template_shape_score>  (2) 
0.231

>  <template_color_score>  (2) 
0.048

>  <template_combo_score>  (2) 
0.139

$$$$
5EOK_combo_pose
     RDKit          3D

 79 83  0  0  0  0  0  0  0  0999 V2000
  -36.7238  148.2007   79.6110 C   0  0  0  0  0  0  0  0  0  0  0  0
  -37.6627  149.2578   79.1633 C   0  0  0  0  0  0  0  0  0  0  0  0
  -37.1160  150.6852   79.1004 C   0  0  2  0  0  0  0  0  0  0  0  0
  -38.3444  151.4961   78.6503 C   0  0  0  0  0  0  0  0  0  0  0  0
  -36.0441  150.7753   78.1147 C   0  0  2  0  0  0  0  0  0  0  0  0
  -34.9011  149.8846   78.3879 N   0  0  0  0  0  0  0  0  0  0  0  0
  -33.7704  150.3944   79.1210 C   0  0  0  0  0  0  0  0  0  0  0  0
  -33.7203  151.5743   79.5531 O   0  0  0  0  0  0  0  0  0  0  0  0
  -32.6177  149.5063   79.3776 C   0  0  1  0  0  0  0  0  0  0  0  0
  -31.5098  150.3747   79.8007 N   0  0  0  0  0  0  0  0  0  0  0  0
  -32.8309  148.5795   80.5655 C   0  0  0  0  0  0  0  0  0  0  0  0
  -33.0334  149.3294   81.8268 C   0  0  0  0  0  0  0  0  0  0  0  0
  -34.1663  149.7996   82.4315 C   0  0  0  0  0  0  0  0  0  0  0  0
  -33.8497  150.4237   83.5881 N   0  0  0  0  0  0  0  0  0  0  0  0
  -32.5100  150.3565   83.7306 C   0  0  0  0  0  0  0  0  0  0  0  0
  -32.0236  149.7005   82.6745 N   0  0  0  0  0  0  0  0  0  0  0  0
  -35.5332  152.0442   77.6059 C   0  0  0  0  0  0  0  0  0  0  0  0
  -34.3212  151.9630   77.1336 O   0  0  0  0  0  0  0  0  0  0  0  0
  -36.0933  153.3099   77.5299 N   0  0  0  0  0  0  0  0  0  0  0  0
  -35.3597  154.3836   76.9205 C   0  0  1  0  0  0  0  0  0  0  0  0
  -36.1407  154.9512   75.7240 C   0  0  0  0  0  0  0  0  0  0  0  0
  -35.4077  156.0583   75.0792 C   0  0  0  0  0  0  0  0  0  0  0  0
  -34.4181  155.7857   74.1314 C   0  0  0  0  0  0  0  0  0  0  0  0
  -33.7275  156.7914   73.4949 C   0  0  0  0  0  0  0  0  0  0  0  0
  -33.9841  158.1228   73.7689 C   0  0  0  0  0  0  0  0  0  0  0  0
  -33.2911  159.1462   73.1362 O   0  0  0  0  0  0  0  0  0  0  0  0
  -34.9723  158.4153   74.7157 C   0  0  0  0  0  0  0  0  0  0  0  0
  -35.6688  157.4077   75.3571 C   0  0  0  0  0  0  0  0  0  0  0  0
  -34.8842  155.3977   77.8372 C   0  0  0  0  0  0  0  0  0  0  0  0
  -34.2100  156.3711   77.2838 O   0  0  0  0  0  0  0  0  0  0  0  0
  -35.0056  155.5420   79.2195 N   0  0  0  0  0  0  0  0  0  0  0  0
  -34.3935  156.7515   79.8776 C   0  0  0  0  0  0  0  0  0  0  0  0
  -33.7712  156.1675   81.1257 C   0  0  0  0  0  0  0  0  0  0  0  0
  -34.4784  154.8520   81.3373 C   0  0  0  0  0  0  0  0  0  0  0  0
  -35.5654  154.8504   80.3213 C   0  0  1  0  0  0  0  0  0  0  0  0
  -36.8662  155.3784   80.7613 C   0  0  0  0  0  0  0  0  0  0  0  0
  -37.7515  155.5381   79.8449 O   0  0  0  0  0  0  0  0  0  0  0  0
  -37.2257  155.7247   82.0790 N   0  0  0  0  0  0  0  0  0  0  0  0
  -38.5542  156.2300   82.3435 C   0  0  1  0  0  0  0  0  0  0  0  0
  -38.9799  155.7591   83.6952 C   0  0  0  0  0  0  0  0  0  0  0  0
  -38.0803  156.2722   84.7631 C   0  0  0  0  0  0  0  0  0  0  0  0
  -37.1042  157.0331   84.5592 O   0  0  0  0  0  0  0  0  0  0  0  0
  -38.3466  155.8787   86.0690 O   0  0  0  0  0  0  0  0  0  0  0  0
  -38.5982  157.7170   82.2017 C   0  0  0  0  0  0  0  0  0  0  0  0
  -37.5309  158.3328   81.8498 O   0  0  0  0  0  0  0  0  0  0  0  0
  -39.7809  158.4747   82.4397 N   0  0  0  0  0  0  0  0  0  0  0  0
  -39.6387  159.9221   82.2289 C   0  0  1  0  0  0  0  0  0  0  0  0
  -40.5933  160.1692   81.0341 C   0  0  0  0  0  0  0  0  0  0  0  0
  -40.2113  159.3950   79.8476 C   0  0  0  0  0  0  0  0  0  0  0  0
  -39.3399  159.8678   78.8603 C   0  0  0  0  0  0  0  0  0  0  0  0
  -39.0410  159.0904   77.7771 C   0  0  0  0  0  0  0  0  0  0  0  0
  -39.5748  157.8196   77.6056 C   0  0  0  0  0  0  0  0  0  0  0  0
  -40.4411  157.3338   78.5753 C   0  0  0  0  0  0  0  0  0  0  0  0
  -40.7230  158.1356   79.6512 C   0  0  0  0  0  0  0  0  0  0  0  0
  -40.1217  160.7104   83.3751 C   0  0  0  0  0  0  0  0  0  0  0  0
  -40.7226  160.0333   84.2872 O   0  0  0  0  0  0  0  0  0  0  0  0
  -39.9621  162.1046   83.5204 N   0  0  0  0  0  0  0  0  0  0  0  0
  -39.2823  163.0613   82.6393 C   0  0  0  0  0  0  0  0  0  0  0  0
  -38.9845  164.2978   83.4172 C   0  0  0  0  0  0  0  0  0  0  0  0
  -39.3617  163.9423   84.8367 C   0  0  0  0  0  0  0  0  0  0  0  0
  -40.4678  162.9021   84.6540 C   0  0  1  0  0  0  0  0  0  0  0  0
  -41.7393  163.5846   84.3443 C   0  0  0  0  0  0  0  0  0  0  0  0
  -42.2087  164.3184   85.2897 O   0  0  0  0  0  0  0  0  0  0  0  0
  -42.4359  163.4837   83.1207 N   0  0  0  0  0  0  0  0  0  0  0  0
  -43.6924  164.1935   82.8480 C   0  0  2  0  0  0  0  0  0  0  0  0
  -44.6792  163.1782   82.4213 C   0  0  0  0  0  0  0  0  0  0  0  0
  -44.3154  161.9572   82.3506 O   0  0  0  0  0  0  0  0  0  0  0  0
  -46.0216  163.4988   82.0828 N   0  0  0  0  0  0  0  0  0  0  0  0
  -46.9770  162.4554   81.6524 C   0  0  1  0  0  0  0  0  0  0  0  0
  -48.0824  162.4839   82.6591 C   0  0  0  0  0  0  0  0  0  0  0  0
  -49.1267  161.4881   82.3912 C   0  0  0  0  0  0  0  0  0  0  0  0
  -50.1861  161.4466   83.0827 O   0  0  0  0  0  0  0  0  0  0  0  0
  -49.0438  160.5297   81.3798 O   0  0  0  0  0  0  0  0  0  0  0  0
  -47.4125  162.7432   80.2630 C   0  0  0  0  0  0  0  0  0  0  0  0
  -47.9626  161.9256   79.4989 O   0  0  0  0  0  0  0  0  0  0  0  0
  -47.1981  164.0283   79.7437 O   0  0  0  0  0  0  0  0  0  0  0  0
  -43.4826  165.1344   81.6759 C   0  0  1  0  0  0  0  0  0  0  0  0
  -43.1433  164.3107   80.4601 C   0  0  0  0  0  0  0  0  0  0  0  0
  -44.6550  165.8121   81.4259 O   0  0  0  0  0  0  0  0  0  0  0  0
  1  2  1  0
  2  3  1  0
  3  4  1  6
  3  5  1  0
  5  6  1  1
  6  7  1  0
  7  8  2  0
  7  9  1  0
  9 10  1  1
  9 11  1  0
 11 12  1  0
 12 13  2  0
 13 14  1  0
 14 15  1  0
 15 16  2  0
  5 17  1  0
 17 18  2  0
 17 19  1  0
 19 20  1  0
 20 21  1  6
 21 22  1  0
 22 23  2  0
 23 24  1  0
 24 25  2  0
 25 26  1  0
 25 27  1  0
 27 28  2  0
 20 29  1  0
 29 30  2  0
 29 31  1  0
 31 32  1  0
 32 33  1  0
 33 34  1  0
 34 35  1  0
 35 36  1  1
 36 37  2  0
 36 38  1  0
 38 39  1  0
 39 40  1  1
 40 41  1  0
 41 42  2  0
 41 43  1  0
 39 44  1  0
 44 45  2  0
 44 46  1  0
 46 47  1  0
 47 48  1  6
 48 49  1  0
 49 50  2  0
 50 51  1  0
 51 52  2  0
 52 53  1  0
 53 54  2  0
 47 55  1  0
 55 56  2  0
 55 57  1  0
 57 58  1  0
 58 59  1  0
 59 60  1  0
 60 61  1  0
 61 62  1  6
 62 63  2  0
 62 64  1  0
 65 64  1  6
 65 66  1  0
 66 67  2  0
 66 68  1  0
 68 69  1  0
 69 70  1  1
 70 71  1  0
 71 72  2  0
 71 73  1  0
 69 74  1  0
 74 75  2  0
 74 76  1  0
 65 77  1  0
 77 78  1  6
 77 79  1  0
 16 12  1  0
 28 22  1  0
 35 31  1  0
 54 49  1  0
 61 57  1  0
M  CHG  4  10   1  43  -1  73  -1  76  -1
M  END
>  <shape_align_shape_tanimoto>  (3) 
0.33410567373058414

>  <shape_align_color_tanimoto>  (3) 
0.025879166606258212

>  <metric>  (3) 
combo

>  <metric_score>  (3) 
0.180

>  <template_pid>  (3) 
5EOK

>  <template_shape_score>  (3) 
0.334

>  <template_color_score>  (3) 
0.026

>  <template_combo_score>  (3) 
0.180

$$$$
