5L6H_shape_pose
     RDKit          3D

 31 34  0  0  0  0  0  0  0  0999 V2000
    5.5459   11.5120    7.6060 C   0  0  0  0  0  0  0  0  0  0  0  0
    6.1917   10.6538    7.0574 C   0  0  0  0  0  0  0  0  0  0  0  0
    6.9676    9.6427    6.3998 C   0  0  0  0  0  0  0  0  0  0  0  0
    6.7283    8.2974    6.6191 C   0  0  0  0  0  0  0  0  0  0  0  0
    7.5264    7.4029    5.9371 C   0  0  0  0  0  0  0  0  0  0  0  0
    8.5214    7.8228    5.0734 C   0  0  0  0  0  0  0  0  0  0  0  0
    8.7504    9.1557    4.8638 C   0  0  0  0  0  0  0  0  0  0  0  0
    9.7497    9.6638    4.0165 N   0  0  0  0  0  0  0  0  0  0  0  0
   11.0780    9.2128    3.9010 C   0  0  0  0  0  0  0  0  0  0  0  0
   11.8346    9.6519    2.8500 N   0  0  0  0  0  0  0  0  0  0  0  0
   13.1014    9.3052    2.6542 C   0  0  0  0  0  0  0  0  0  0  0  0
   13.6654    8.4743    3.5470 N   0  0  0  0  0  0  0  0  0  0  0  0
   12.9674    8.0052    4.6126 C   0  0  0  0  0  0  0  0  0  0  0  0
   11.6495    8.3617    4.8219 C   0  0  0  0  0  0  0  0  0  0  0  0
   11.2783    7.7460    5.9384 N   0  0  0  0  0  0  0  0  0  0  0  0
   12.3122    7.0230    6.4254 C   0  0  0  0  0  0  0  0  0  0  0  0
   13.3555    7.1680    5.6260 N   0  0  0  0  0  0  0  0  0  0  0  0
   14.6989    6.6224    5.6534 C   0  0  2  0  0  0  0  0  0  0  0  0
   15.2720    6.6410    4.3871 O   0  0  0  0  0  0  0  0  0  0  0  0
   15.3376    5.3803    3.8824 C   0  0  2  0  0  0  0  0  0  0  0  0
   14.0493    4.8891    3.2351 C   0  0  0  0  0  0  0  0  0  0  0  0
   13.0579    4.8370    4.1789 O   0  0  0  0  0  0  0  0  0  0  0  0
   11.6360    4.1254    3.7040 S   0  0  0  0  0  0  0  0  0  0  0  0
   10.6952    3.8677    5.1493 N   0  0  0  0  0  0  0  0  0  0  0  0
   10.8569    4.8910    2.6981 O   0  0  0  0  0  0  0  0  0  0  0  0
   11.9443    2.7341    3.1689 O   0  0  0  0  0  0  0  0  0  0  0  0
   15.6188    4.5188    5.1064 C   0  0  1  0  0  0  0  0  0  0  0  0
   16.9555    4.3832    5.3646 O   0  0  0  0  0  0  0  0  0  0  0  0
   14.8275    5.2380    6.1765 C   0  0  1  0  0  0  0  0  0  0  0  0
   15.5763    5.2068    7.3607 O   0  0  0  0  0  0  0  0  0  0  0  0
    7.9599   10.0807    5.5384 C   0  0  0  0  0  0  0  0  0  0  0  0
  1  2  3  0
  2  3  1  0
  3  4  2  0
  4  5  1  0
  5  6  2  0
  6  7  1  0
  7  8  1  0
  8  9  1  0
  9 10  2  0
 10 11  1  0
 11 12  2  0
 12 13  1  0
 13 14  2  0
 14 15  1  0
 15 16  2  0
 16 17  1  0
 18 17  1  6
 18 19  1  0
 19 20  1  0
 20 21  1  1
 21 22  1  0
 22 23  1  0
 23 24  1  0
 23 25  2  0
 23 26  2  0
 20 27  1  0
 27 28  1  1
 27 29  1  0
 29 30  1  1
  7 31  2  0
 31  3  1  0
 14  9  1  0
 29 18  1  0
 17 13  1  0
M  END
>  <shape_align_shape_tanimoto>  (1) 
0.37423952984616987

>  <shape_align_color_tanimoto>  (1) 
0.028571550162322195

>  <metric>  (1) 
shape

>  <metric_score>  (1) 
0.374

>  <template_pid>  (1) 
5L6H

>  <template_shape_score>  (1) 
0.374

>  <template_color_score>  (1) 
0.029

>  <template_combo_score>  (1) 
0.201

$$$$
5L6H_color_pose
     RDKit          3D

 31 34  0  0  0  0  0  0  0  0999 V2000
    9.0962    6.4450   -1.4309 C   0  0  0  0  0  0  0  0  0  0  0  0
    8.8467    6.9667   -0.3655 C   0  0  0  0  0  0  0  0  0  0  0  0
    8.5650    7.5912    0.8862 C   0  0  0  0  0  0  0  0  0  0  0  0
    7.2950    7.3955    1.4052 C   0  0  0  0  0  0  0  0  0  0  0  0
    6.9759    7.9677    2.6226 C   0  0  0  0  0  0  0  0  0  0  0  0
    7.9467    8.7260    3.2930 C   0  0  0  0  0  0  0  0  0  0  0  0
    9.2110    8.8963    2.7329 C   0  0  0  0  0  0  0  0  0  0  0  0
   10.1314    9.6676    3.5270 N   0  0  0  0  0  0  0  0  0  0  0  0
   10.8777    8.8416    4.4578 C   0  0  0  0  0  0  0  0  0  0  0  0
   10.1813    8.3561    5.5216 N   0  0  0  0  0  0  0  0  0  0  0  0
   10.8054    7.5352    6.4136 C   0  0  0  0  0  0  0  0  0  0  0  0
   12.0949    7.2216    6.2276 N   0  0  0  0  0  0  0  0  0  0  0  0
   12.7790    7.6878    5.2013 C   0  0  0  0  0  0  0  0  0  0  0  0
   12.1998    8.5304    4.2542 C   0  0  0  0  0  0  0  0  0  0  0  0
   13.0948    8.8683    3.3285 N   0  0  0  0  0  0  0  0  0  0  0  0
   14.2673    8.2486    3.6595 C   0  0  0  0  0  0  0  0  0  0  0  0
   14.0785    7.5251    4.7986 N   0  0  0  0  0  0  0  0  0  0  0  0
   15.0902    6.7084    5.4330 C   0  0  2  0  0  0  0  0  0  0  0  0
   15.8760    6.0623    4.4673 O   0  0  0  0  0  0  0  0  0  0  0  0
   15.1349    4.9809    3.9757 C   0  0  2  0  0  0  0  0  0  0  0  0
   14.9104    5.0438    2.5220 C   0  0  0  0  0  0  0  0  0  0  0  0
   14.1172    3.9781    2.0730 O   0  0  0  0  0  0  0  0  0  0  0  0
   13.5998    4.4039    0.5146 S   0  0  0  0  0  0  0  0  0  0  0  0
   11.9627    3.9646    0.2923 N   0  0  0  0  0  0  0  0  0  0  0  0
   14.4910    3.7963   -0.5238 O   0  0  0  0  0  0  0  0  0  0  0  0
   13.7652    5.9072    0.3757 O   0  0  0  0  0  0  0  0  0  0  0  0
   13.9247    4.8118    4.8500 C   0  0  1  0  0  0  0  0  0  0  0  0
   13.6529    3.4684    5.1178 O   0  0  0  0  0  0  0  0  0  0  0  0
   14.4825    5.4940    6.1109 C   0  0  1  0  0  0  0  0  0  0  0  0
   15.5598    4.7184    6.5366 O   0  0  0  0  0  0  0  0  0  0  0  0
    9.5336    8.3340    1.5277 C   0  0  0  0  0  0  0  0  0  0  0  0
  1  2  3  0
  2  3  1  0
  3  4  2  0
  4  5  1  0
  5  6  2  0
  6  7  1  0
  7  8  1  0
  8  9  1  0
  9 10  2  0
 10 11  1  0
 11 12  2  0
 12 13  1  0
 13 14  2  0
 14 15  1  0
 15 16  2  0
 16 17  1  0
 18 17  1  6
 18 19  1  0
 19 20  1  0
 20 21  1  6
 21 22  1  0
 22 23  1  0
 23 24  1  0
 23 25  2  0
 23 26  2  0
 20 27  1  0
 27 28  1  1
 27 29  1  0
 29 30  1  6
  7 31  2  0
 31  3  1  0
 14  9  1  0
 29 18  1  0
 17 13  1  0
M  END
>  <shape_align_shape_tanimoto>  (2) 
0.35297356512606504

>  <shape_align_color_tanimoto>  (2) 
0.074631605509619156

>  <metric>  (2) 
color

>  <metric_score>  (2) 
0.075

>  <template_pid>  (2) 
5L6H

>  <template_shape_score>  (2) 
0.353

>  <template_color_score>  (2) 
0.075

>  <template_combo_score>  (2) 
0.214

$$$$
5L6H_combo_pose
     RDKit          3D

 31 34  0  0  0  0  0  0  0  0999 V2000
    9.0962    6.4450   -1.4309 C   0  0  0  0  0  0  0  0  0  0  0  0
    8.8467    6.9667   -0.3655 C   0  0  0  0  0  0  0  0  0  0  0  0
    8.5650    7.5912    0.8862 C   0  0  0  0  0  0  0  0  0  0  0  0
    7.2950    7.3955    1.4052 C   0  0  0  0  0  0  0  0  0  0  0  0
    6.9759    7.9677    2.6226 C   0  0  0  0  0  0  0  0  0  0  0  0
    7.9467    8.7260    3.2930 C   0  0  0  0  0  0  0  0  0  0  0  0
    9.2110    8.8963    2.7329 C   0  0  0  0  0  0  0  0  0  0  0  0
   10.1314    9.6676    3.5270 N   0  0  0  0  0  0  0  0  0  0  0  0
   10.8777    8.8416    4.4578 C   0  0  0  0  0  0  0  0  0  0  0  0
   10.1813    8.3561    5.5216 N   0  0  0  0  0  0  0  0  0  0  0  0
   10.8054    7.5352    6.4136 C   0  0  0  0  0  0  0  0  0  0  0  0
   12.0949    7.2216    6.2276 N   0  0  0  0  0  0  0  0  0  0  0  0
   12.7790    7.6878    5.2013 C   0  0  0  0  0  0  0  0  0  0  0  0
   12.1998    8.5304    4.2542 C   0  0  0  0  0  0  0  0  0  0  0  0
   13.0948    8.8683    3.3285 N   0  0  0  0  0  0  0  0  0  0  0  0
   14.2673    8.2486    3.6595 C   0  0  0  0  0  0  0  0  0  0  0  0
   14.0785    7.5251    4.7986 N   0  0  0  0  0  0  0  0  0  0  0  0
   15.0902    6.7084    5.4330 C   0  0  2  0  0  0  0  0  0  0  0  0
   15.8760    6.0623    4.4673 O   0  0  0  0  0  0  0  0  0  0  0  0
   15.1349    4.9809    3.9757 C   0  0  2  0  0  0  0  0  0  0  0  0
   14.9104    5.0438    2.5220 C   0  0  0  0  0  0  0  0  0  0  0  0
   14.1172    3.9781    2.0730 O   0  0  0  0  0  0  0  0  0  0  0  0
   13.5998    4.4039    0.5146 S   0  0  0  0  0  0  0  0  0  0  0  0
   11.9627    3.9646    0.2923 N   0  0  0  0  0  0  0  0  0  0  0  0
   14.4910    3.7963   -0.5238 O   0  0  0  0  0  0  0  0  0  0  0  0
   13.7652    5.9072    0.3757 O   0  0  0  0  0  0  0  0  0  0  0  0
   13.9247    4.8118    4.8500 C   0  0  1  0  0  0  0  0  0  0  0  0
   13.6529    3.4684    5.1178 O   0  0  0  0  0  0  0  0  0  0  0  0
   14.4825    5.4940    6.1109 C   0  0  1  0  0  0  0  0  0  0  0  0
   15.5598    4.7184    6.5366 O   0  0  0  0  0  0  0  0  0  0  0  0
    9.5336    8.3340    1.5277 C   0  0  0  0  0  0  0  0  0  0  0  0
  1  2  3  0
  2  3  1  0
  3  4  2  0
  4  5  1  0
  5  6  2  0
  6  7  1  0
  7  8  1  0
  8  9  1  0
  9 10  2  0
 10 11  1  0
 11 12  2  0
 12 13  1  0
 13 14  2  0
 14 15  1  0
 15 16  2  0
 16 17  1  0
 18 17  1  6
 18 19  1  0
 19 20  1  0
 20 21  1  6
 21 22  1  0
 22 23  1  0
 23 24  1  0
 23 25  2  0
 23 26  2  0
 20 27  1  0
 27 28  1  1
 27 29  1  0
 29 30  1  6
  7 31  2  0
 31  3  1  0
 14  9  1  0
 29 18  1  0
 17 13  1  0
M  END
>  <shape_align_shape_tanimoto>  (3) 
0.35297356512606504

>  <shape_align_color_tanimoto>  (3) 
0.074631605509619156

>  <metric>  (3) 
combo

>  <metric_score>  (3) 
0.214

>  <template_pid>  (3) 
5L6H

>  <template_shape_score>  (3) 
0.353

>  <template_color_score>  (3) 
0.075

>  <template_combo_score>  (3) 
0.214

$$$$
