5NNE_shape_pose
     RDKit          3D

 77 76  0  0  0  0  0  0  0  0999 V2000
   40.4440   -1.5102  105.8623 C   0  0  0  0  0  0  0  0  0  0  0  0
   40.0015   -0.4666  104.9058 C   0  0  0  0  0  0  0  0  0  0  0  0
   39.4585   -0.7938  103.8418 O   0  0  0  0  0  0  0  0  0  0  0  0
   40.1874    0.9009  105.1864 N   0  0  0  0  0  0  0  0  0  0  0  0
   39.7689    1.9882  104.2841 C   0  0  0  0  0  0  0  0  0  0  0  0
   40.1444    3.2520  104.9759 C   0  0  0  0  0  0  0  0  0  0  0  0
   39.8118    4.5229  104.2682 C   0  0  0  0  0  0  0  0  0  0  0  0
   38.3229    4.6722  104.0341 C   0  0  0  0  0  0  0  0  0  0  0  0
   38.0884    6.0498  103.4321 C   0  0  2  0  0  0  0  0  0  0  0  0
   38.6518    6.9454  104.4790 N   0  0  0  0  0  0  0  0  0  0  0  0
   39.1216    8.2034  103.9518 C   0  0  0  0  0  0  0  0  0  0  0  0
   39.0146    8.4470  102.7379 O   0  0  0  0  0  0  0  0  0  0  0  0
   39.7156    9.1433  104.9479 C   0  0  2  0  0  0  0  0  0  0  0  0
   40.9790    9.7748  104.4404 C   0  0  0  0  0  0  0  0  0  0  0  0
   39.9626    8.4948  106.2055 N   0  0  0  0  0  0  0  0  0  0  0  0
   39.2890    8.7443  107.4239 C   0  0  0  0  0  0  0  0  0  0  0  0
   38.3602    9.5803  107.5589 O   0  0  0  0  0  0  0  0  0  0  0  0
   39.7087    7.9768  108.6077 C   0  0  2  0  0  0  0  0  0  0  0  0
   39.6161    6.4812  108.3338 C   0  0  0  0  0  0  0  0  0  0  0  0
   40.1206    5.7017  109.5239 C   0  0  0  0  0  0  0  0  0  0  0  0
   39.9623    4.2287  109.1924 C   0  0  0  0  0  0  0  0  0  0  0  0
   40.4573    3.3654  110.3445 C   0  0  0  0  0  0  0  0  0  0  0  0
   39.7088    3.6363  111.5539 N   0  0  0  0  0  0  0  0  0  0  0  0
   38.9041    8.3050  109.7606 N   0  0  0  0  0  0  0  0  0  0  0  0
   37.7739    7.6571  110.2543 C   0  0  0  0  0  0  0  0  0  0  0  0
   37.1892    6.6527  109.7991 O   0  0  0  0  0  0  0  0  0  0  0  0
   37.1537    8.2229  111.5104 C   0  0  0  0  0  0  0  0  0  0  0  0
   36.0063    7.4276  111.8838 N   0  0  0  0  0  0  0  0  0  0  0  0
   36.6053    6.3312  103.3794 C   0  0  0  0  0  0  0  0  0  0  0  0
   35.9670    5.9939  102.3493 O   0  0  0  0  0  0  0  0  0  0  0  0
   35.9846    6.9475  104.4662 N   0  0  0  0  0  0  0  0  0  0  0  0
   34.6353    7.3204  104.6713 C   0  0  0  0  0  0  0  0  0  0  0  0
   33.6022    6.2491  104.6395 C   0  0  0  0  0  0  0  0  0  0  0  0
   32.4254    6.6845  104.9051 O   0  0  0  0  0  0  0  0  0  0  0  0
   33.8225    4.9065  104.3562 N   0  0  0  0  0  0  0  0  0  0  0  0
   32.9161    3.7938  104.3072 C   0  0  1  0  0  0  0  0  0  0  0  0
   31.4498    4.3915  104.4037 C   0  0  0  0  0  0  0  0  0  0  0  0
   30.4983    3.2436  104.3392 C   0  0  0  0  0  0  0  0  0  0  0  0
   29.0545    3.7568  104.4569 C   0  0  0  0  0  0  0  0  0  0  0  0
   28.8418    4.4875  105.7682 C   0  0  0  0  0  0  0  0  0  0  0  0
   27.4731    4.9785  105.8999 N   0  0  0  0  0  0  0  0  0  0  0  0
   32.9903    3.0445  103.0522 C   0  0  0  0  0  0  0  0  0  0  0  0
   33.4560    3.6591  102.0408 O   0  0  0  0  0  0  0  0  0  0  0  0
   32.5977    1.7081  102.8423 N   0  0  0  0  0  0  0  0  0  0  0  0
   32.6649    1.0541  101.5511 C   0  0  1  0  0  0  0  0  0  0  0  0
   33.9833    0.9615  100.9128 C   0  0  0  0  0  0  0  0  0  0  0  0
   35.1197    0.2821  101.5024 C   0  0  0  0  0  0  0  0  0  0  0  0
   35.0910   -1.1633  101.8087 C   0  0  0  0  0  0  0  0  0  0  0  0
   36.4643   -1.6213  102.3611 C   0  0  0  0  0  0  0  0  0  0  0  0
   37.4776   -1.3191  101.3322 N   0  0  0  0  0  0  0  0  0  0  0  0
   37.4395   -1.8962  100.0404 C   0  0  0  0  0  0  0  0  0  0  0  0
   38.5237   -1.5180   99.0656 C   0  0  0  0  0  0  0  0  0  0  0  0
   36.5549   -2.7010   99.6621 O   0  0  0  0  0  0  0  0  0  0  0  0
   31.7326   -0.0606  101.4541 C   0  0  0  0  0  0  0  0  0  0  0  0
   30.8556   -0.1549  102.3922 O   0  0  0  0  0  0  0  0  0  0  0  0
   31.6787   -1.0452  100.4635 N   0  0  0  0  0  0  0  0  0  0  0  0
   30.6383   -2.0965  100.5426 C   0  0  2  0  0  0  0  0  0  0  0  0
   31.1692   -3.1146  101.5697 C   0  0  0  0  0  0  0  0  0  0  0  0
   32.3405   -2.8407  101.9282 O   0  0  0  0  0  0  0  0  0  0  0  0
   30.3638   -4.1587  101.9812 N   0  0  0  0  0  0  0  0  0  0  0  0
   30.5722   -5.2364  102.8944 C   0  0  1  0  0  0  0  0  0  0  0  0
   31.9164   -5.3776  103.5262 C   0  0  0  0  0  0  0  0  0  0  0  0
   33.0477   -5.7406  102.6147 C   0  0  0  0  0  0  0  0  0  0  0  0
   34.3182   -5.7672  103.3978 C   0  0  0  0  0  0  0  0  0  0  0  0
   35.4527   -6.4278  102.8750 N   0  0  0  0  0  0  0  0  0  0  0  0
   34.4055   -5.2108  104.5216 O   0  0  0  0  0  0  0  0  0  0  0  0
   29.4851   -5.3243  103.8638 C   0  0  0  0  0  0  0  0  0  0  0  0
   29.5432   -6.2098  104.7529 O   0  0  0  0  0  0  0  0  0  0  0  0
   28.3397   -4.4726  103.8855 N   0  0  0  0  0  0  0  0  0  0  0  0
   27.3066   -4.6303  104.8881 C   0  0  1  0  0  0  0  0  0  0  0  0
   27.0274   -3.3482  105.6092 C   0  0  0  0  0  0  0  0  0  0  0  0
   26.0289   -5.0059  104.1903 C   0  0  0  0  0  0  0  0  0  0  0  0
   25.0290   -5.4378  104.8262 O   0  0  0  0  0  0  0  0  0  0  0  0
   25.9321   -4.8755  102.7903 O   0  0  0  0  0  0  0  0  0  0  0  0
   30.4955   -2.6657   99.1937 C   0  0  1  0  0  0  0  0  0  0  0  0
   29.6418   -3.8799   99.0341 C   0  0  0  0  0  0  0  0  0  0  0  0
   30.0891   -1.6912   98.2526 O   0  0  0  0  0  0  0  0  0  0  0  0
  1  2  1  0
  2  3  2  0
  2  4  1  0
  4  5  1  0
  5  6  1  0
  6  7  1  0
  7  8  1  0
  9  8  1  1
  9 10  1  0
 10 11  1  0
 11 12  2  0
 11 13  1  0
 13 14  1  6
 13 15  1  0
 15 16  1  0
 16 17  2  0
 16 18  1  0
 18 19  1  6
 19 20  1  0
 20 21  1  0
 21 22  1  0
 22 23  1  0
 18 24  1  0
 24 25  1  0
 25 26  2  0
 25 27  1  0
 27 28  1  0
  9 29  1  0
 29 30  2  0
 29 31  1  0
 31 32  1  0
 32 33  1  0
 33 34  2  0
 33 35  1  0
 35 36  1  0
 36 37  1  6
 37 38  1  0
 38 39  1  0
 39 40  1  0
 40 41  1  0
 36 42  1  0
 42 43  2  0
 42 44  1  0
 44 45  1  0
 45 46  1  1
 46 47  1  0
 47 48  1  0
 48 49  1  0
 49 50  1  0
 50 51  1  0
 51 52  1  0
 51 53  2  0
 45 54  1  0
 54 55  2  0
 54 56  1  0
 57 56  1  6
 57 58  1  0
 58 59  2  0
 58 60  1  0
 60 61  1  0
 61 62  1  1
 62 63  1  0
 63 64  1  0
 64 65  1  0
 64 66  2  0
 61 67  1  0
 67 68  2  0
 67 69  1  0
 69 70  1  0
 70 71  1  6
 70 72  1  0
 72 73  2  0
 72 74  1  0
 57 75  1  0
 75 76  1  1
 75 77  1  0
M  CHG  4  23   1  28   1  41   1  74  -1
M  END
>  <shape_align_shape_tanimoto>  (1) 
0.35235956738690505

>  <shape_align_color_tanimoto>  (1) 
0.010056520781392974

>  <metric>  (1) 
shape

>  <metric_score>  (1) 
0.352

>  <template_pid>  (1) 
5NNE

>  <template_shape_score>  (1) 
0.352

>  <template_color_score>  (1) 
0.010

>  <template_combo_score>  (1) 
0.181

$$$$
5NNE_color_pose
     RDKit          3D

 77 76  0  0  0  0  0  0  0  0999 V2000
   33.2537    2.8064  110.5097 C   0  0  0  0  0  0  0  0  0  0  0  0
   32.0036    2.9516  109.6864 C   0  0  0  0  0  0  0  0  0  0  0  0
   30.9477    3.3312  110.2175 O   0  0  0  0  0  0  0  0  0  0  0  0
   32.0763    2.6441  108.3048 N   0  0  0  0  0  0  0  0  0  0  0  0
   30.9538    2.7449  107.3952 C   0  0  0  0  0  0  0  0  0  0  0  0
   30.3929    4.1568  107.3045 C   0  0  0  0  0  0  0  0  0  0  0  0
   29.2614    4.2553  106.3688 C   0  0  0  0  0  0  0  0  0  0  0  0
   29.3669    3.8456  104.9686 C   0  0  0  0  0  0  0  0  0  0  0  0
   30.2188    4.4741  103.9558 C   0  0  2  0  0  0  0  0  0  0  0  0
   30.0384    3.7274  102.6651 N   0  0  0  0  0  0  0  0  0  0  0  0
   30.3665    2.3726  102.5376 C   0  0  0  0  0  0  0  0  0  0  0  0
   30.8551    1.6694  103.4970 O   0  0  0  0  0  0  0  0  0  0  0  0
   30.1789    1.5890  101.2704 C   0  0  2  0  0  0  0  0  0  0  0  0
   28.7397    1.7375  100.8051 C   0  0  0  0  0  0  0  0  0  0  0  0
   30.4907    0.2315  101.6106 N   0  0  0  0  0  0  0  0  0  0  0  0
   31.3380   -0.6429  100.9071 C   0  0  0  0  0  0  0  0  0  0  0  0
   31.9251   -0.2548   99.8454 O   0  0  0  0  0  0  0  0  0  0  0  0
   31.5070   -2.0152  101.4531 C   0  0  2  0  0  0  0  0  0  0  0  0
   32.2530   -2.0424  102.7710 C   0  0  0  0  0  0  0  0  0  0  0  0
   33.6338   -1.4871  102.6895 C   0  0  0  0  0  0  0  0  0  0  0  0
   34.3168   -1.5434  104.0350 C   0  0  0  0  0  0  0  0  0  0  0  0
   34.4290   -2.9497  104.5721 C   0  0  0  0  0  0  0  0  0  0  0  0
   35.1122   -2.8370  105.8640 N   0  0  0  0  0  0  0  0  0  0  0  0
   32.3266   -2.7865  100.5290 N   0  0  0  0  0  0  0  0  0  0  0  0
   31.7359   -4.0153  100.0662 C   0  0  0  0  0  0  0  0  0  0  0  0
   30.5955   -4.3931  100.4341 O   0  0  0  0  0  0  0  0  0  0  0  0
   32.4496   -4.9183   99.1158 C   0  0  0  0  0  0  0  0  0  0  0  0
   33.7288   -4.3140   98.8093 N   0  0  0  0  0  0  0  0  0  0  0  0
   31.6470    4.5485  104.2328 C   0  0  0  0  0  0  0  0  0  0  0  0
   32.4425    3.7417  103.6610 O   0  0  0  0  0  0  0  0  0  0  0  0
   32.2007    5.4883  105.1095 N   0  0  0  0  0  0  0  0  0  0  0  0
   33.5603    5.6606  105.4708 C   0  0  0  0  0  0  0  0  0  0  0  0
   34.4001    6.0187  104.2936 C   0  0  0  0  0  0  0  0  0  0  0  0
   33.9357    6.1479  103.1307 O   0  0  0  0  0  0  0  0  0  0  0  0
   35.8012    6.2125  104.5883 N   0  0  0  0  0  0  0  0  0  0  0  0
   36.8010    6.5738  103.6551 C   0  0  1  0  0  0  0  0  0  0  0  0
   37.6800    7.6703  104.1661 C   0  0  0  0  0  0  0  0  0  0  0  0
   37.0399    8.9626  104.4862 C   0  0  0  0  0  0  0  0  0  0  0  0
   36.0357    9.0275  105.5725 C   0  0  0  0  0  0  0  0  0  0  0  0
   36.5450    8.6648  106.9437 C   0  0  0  0  0  0  0  0  0  0  0  0
   35.4110    8.7839  107.8678 N   0  0  0  0  0  0  0  0  0  0  0  0
   37.6247    5.3325  103.3538 C   0  0  0  0  0  0  0  0  0  0  0  0
   37.2707    4.2084  103.7995 O   0  0  0  0  0  0  0  0  0  0  0  0
   38.7992    5.4150  102.5737 N   0  0  0  0  0  0  0  0  0  0  0  0
   39.6720    4.3646  102.1919 C   0  0  1  0  0  0  0  0  0  0  0  0
   40.3037    4.4818  100.8448 C   0  0  0  0  0  0  0  0  0  0  0  0
   41.1514    5.7310  100.7161 C   0  0  0  0  0  0  0  0  0  0  0  0
   41.8026    5.8776   99.3625 C   0  0  0  0  0  0  0  0  0  0  0  0
   42.6238    7.1372   99.3460 C   0  0  0  0  0  0  0  0  0  0  0  0
   41.8613    8.3370   99.5919 N   0  0  0  0  0  0  0  0  0  0  0  0
   42.5884    9.5690   99.5898 C   0  0  0  0  0  0  0  0  0  0  0  0
   41.9926   10.8855   99.8187 C   0  0  0  0  0  0  0  0  0  0  0  0
   43.8266    9.4717   99.3715 O   0  0  0  0  0  0  0  0  0  0  0  0
   40.7203    4.1107  103.2554 C   0  0  0  0  0  0  0  0  0  0  0  0
   41.6736    3.3066  103.0400 O   0  0  0  0  0  0  0  0  0  0  0  0
   40.5484    4.8156  104.4641 N   0  0  0  0  0  0  0  0  0  0  0  0
   41.4576    4.7007  105.6196 C   0  0  2  0  0  0  0  0  0  0  0  0
   40.8661    3.7800  106.6091 C   0  0  0  0  0  0  0  0  0  0  0  0
   39.7750    3.2101  106.2587 O   0  0  0  0  0  0  0  0  0  0  0  0
   41.3761    3.4677  107.8861 N   0  0  0  0  0  0  0  0  0  0  0  0
   40.6954    2.5510  108.7095 C   0  0  1  0  0  0  0  0  0  0  0  0
   41.3366    1.3424  109.2426 C   0  0  0  0  0  0  0  0  0  0  0  0
   42.5357    1.4680  110.1025 C   0  0  0  0  0  0  0  0  0  0  0  0
   43.7545    2.0180  109.5222 C   0  0  0  0  0  0  0  0  0  0  0  0
   44.7361    2.5539  110.4421 N   0  0  0  0  0  0  0  0  0  0  0  0
   44.0571    2.0779  108.3104 O   0  0  0  0  0  0  0  0  0  0  0  0
   40.1018    3.3018  109.8772 C   0  0  0  0  0  0  0  0  0  0  0  0
   39.4474    2.5843  110.6852 O   0  0  0  0  0  0  0  0  0  0  0  0
   40.2649    4.6978  110.0511 N   0  0  0  0  0  0  0  0  0  0  0  0
   39.6307    5.2993  111.2154 C   0  0  1  0  0  0  0  0  0  0  0  0
   40.5789    5.9421  112.1692 C   0  0  0  0  0  0  0  0  0  0  0  0
   38.6457    6.2817  110.6970 C   0  0  0  0  0  0  0  0  0  0  0  0
   38.7872    7.5338  110.8019 O   0  0  0  0  0  0  0  0  0  0  0  0
   37.5093    5.7889  110.0613 O   0  0  0  0  0  0  0  0  0  0  0  0
   41.9062    6.0188  106.1092 C   0  0  1  0  0  0  0  0  0  0  0  0
   40.7931    6.9454  106.5292 C   0  0  0  0  0  0  0  0  0  0  0  0
   42.7644    5.8993  107.1720 O   0  0  0  0  0  0  0  0  0  0  0  0
  1  2  1  0
  2  3  2  0
  2  4  1  0
  4  5  1  0
  5  6  1  0
  6  7  1  0
  7  8  1  0
  9  8  1  1
  9 10  1  0
 10 11  1  0
 11 12  2  0
 11 13  1  0
 13 14  1  1
 13 15  1  0
 15 16  1  0
 16 17  2  0
 16 18  1  0
 18 19  1  1
 19 20  1  0
 20 21  1  0
 21 22  1  0
 22 23  1  0
 18 24  1  0
 24 25  1  0
 25 26  2  0
 25 27  1  0
 27 28  1  0
  9 29  1  0
 29 30  2  0
 29 31  1  0
 31 32  1  0
 32 33  1  0
 33 34  2  0
 33 35  1  0
 35 36  1  0
 36 37  1  1
 37 38  1  0
 38 39  1  0
 39 40  1  0
 40 41  1  0
 36 42  1  0
 42 43  2  0
 42 44  1  0
 44 45  1  0
 45 46  1  6
 46 47  1  0
 47 48  1  0
 48 49  1  0
 49 50  1  0
 50 51  1  0
 51 52  1  0
 51 53  2  0
 45 54  1  0
 54 55  2  0
 54 56  1  0
 57 56  1  6
 57 58  1  0
 58 59  2  0
 58 60  1  0
 60 61  1  0
 61 62  1  1
 62 63  1  0
 63 64  1  0
 64 65  1  0
 64 66  2  0
 61 67  1  0
 67 68  2  0
 67 69  1  0
 69 70  1  0
 70 71  1  1
 70 72  1  0
 72 73  2  0
 72 74  1  0
 57 75  1  0
 75 76  1  1
 75 77  1  0
M  CHG  4  23   1  28   1  41   1  74  -1
M  END
>  <shape_align_shape_tanimoto>  (2) 
0.31891721894189906

>  <shape_align_color_tanimoto>  (2) 
0.056027116461843066

>  <metric>  (2) 
color

>  <metric_score>  (2) 
0.056

>  <template_pid>  (2) 
5NNE

>  <template_shape_score>  (2) 
0.319

>  <template_color_score>  (2) 
0.056

>  <template_combo_score>  (2) 
0.187

$$$$
5NNE_combo_pose
     RDKit          3D

 77 76  0  0  0  0  0  0  0  0999 V2000
   33.2537    2.8064  110.5097 C   0  0  0  0  0  0  0  0  0  0  0  0
   32.0036    2.9516  109.6864 C   0  0  0  0  0  0  0  0  0  0  0  0
   30.9477    3.3312  110.2175 O   0  0  0  0  0  0  0  0  0  0  0  0
   32.0763    2.6441  108.3048 N   0  0  0  0  0  0  0  0  0  0  0  0
   30.9538    2.7449  107.3952 C   0  0  0  0  0  0  0  0  0  0  0  0
   30.3929    4.1568  107.3045 C   0  0  0  0  0  0  0  0  0  0  0  0
   29.2614    4.2553  106.3688 C   0  0  0  0  0  0  0  0  0  0  0  0
   29.3669    3.8456  104.9686 C   0  0  0  0  0  0  0  0  0  0  0  0
   30.2188    4.4741  103.9558 C   0  0  2  0  0  0  0  0  0  0  0  0
   30.0384    3.7274  102.6651 N   0  0  0  0  0  0  0  0  0  0  0  0
   30.3665    2.3726  102.5376 C   0  0  0  0  0  0  0  0  0  0  0  0
   30.8551    1.6694  103.4970 O   0  0  0  0  0  0  0  0  0  0  0  0
   30.1789    1.5890  101.2704 C   0  0  2  0  0  0  0  0  0  0  0  0
   28.7397    1.7375  100.8051 C   0  0  0  0  0  0  0  0  0  0  0  0
   30.4907    0.2315  101.6106 N   0  0  0  0  0  0  0  0  0  0  0  0
   31.3380   -0.6429  100.9071 C   0  0  0  0  0  0  0  0  0  0  0  0
   31.9251   -0.2548   99.8454 O   0  0  0  0  0  0  0  0  0  0  0  0
   31.5070   -2.0152  101.4531 C   0  0  2  0  0  0  0  0  0  0  0  0
   32.2530   -2.0424  102.7710 C   0  0  0  0  0  0  0  0  0  0  0  0
   33.6338   -1.4871  102.6895 C   0  0  0  0  0  0  0  0  0  0  0  0
   34.3168   -1.5434  104.0350 C   0  0  0  0  0  0  0  0  0  0  0  0
   34.4290   -2.9497  104.5721 C   0  0  0  0  0  0  0  0  0  0  0  0
   35.1122   -2.8370  105.8640 N   0  0  0  0  0  0  0  0  0  0  0  0
   32.3266   -2.7865  100.5290 N   0  0  0  0  0  0  0  0  0  0  0  0
   31.7359   -4.0153  100.0662 C   0  0  0  0  0  0  0  0  0  0  0  0
   30.5955   -4.3931  100.4341 O   0  0  0  0  0  0  0  0  0  0  0  0
   32.4496   -4.9183   99.1158 C   0  0  0  0  0  0  0  0  0  0  0  0
   33.7288   -4.3140   98.8093 N   0  0  0  0  0  0  0  0  0  0  0  0
   31.6470    4.5485  104.2328 C   0  0  0  0  0  0  0  0  0  0  0  0
   32.4425    3.7417  103.6610 O   0  0  0  0  0  0  0  0  0  0  0  0
   32.2007    5.4883  105.1095 N   0  0  0  0  0  0  0  0  0  0  0  0
   33.5603    5.6606  105.4708 C   0  0  0  0  0  0  0  0  0  0  0  0
   34.4001    6.0187  104.2936 C   0  0  0  0  0  0  0  0  0  0  0  0
   33.9357    6.1479  103.1307 O   0  0  0  0  0  0  0  0  0  0  0  0
   35.8012    6.2125  104.5883 N   0  0  0  0  0  0  0  0  0  0  0  0
   36.8010    6.5738  103.6551 C   0  0  1  0  0  0  0  0  0  0  0  0
   37.6800    7.6703  104.1661 C   0  0  0  0  0  0  0  0  0  0  0  0
   37.0399    8.9626  104.4862 C   0  0  0  0  0  0  0  0  0  0  0  0
   36.0357    9.0275  105.5725 C   0  0  0  0  0  0  0  0  0  0  0  0
   36.5450    8.6648  106.9437 C   0  0  0  0  0  0  0  0  0  0  0  0
   35.4110    8.7839  107.8678 N   0  0  0  0  0  0  0  0  0  0  0  0
   37.6247    5.3325  103.3538 C   0  0  0  0  0  0  0  0  0  0  0  0
   37.2707    4.2084  103.7995 O   0  0  0  0  0  0  0  0  0  0  0  0
   38.7992    5.4150  102.5737 N   0  0  0  0  0  0  0  0  0  0  0  0
   39.6720    4.3646  102.1919 C   0  0  1  0  0  0  0  0  0  0  0  0
   40.3037    4.4818  100.8448 C   0  0  0  0  0  0  0  0  0  0  0  0
   41.1514    5.7310  100.7161 C   0  0  0  0  0  0  0  0  0  0  0  0
   41.8026    5.8776   99.3625 C   0  0  0  0  0  0  0  0  0  0  0  0
   42.6238    7.1372   99.3460 C   0  0  0  0  0  0  0  0  0  0  0  0
   41.8613    8.3370   99.5919 N   0  0  0  0  0  0  0  0  0  0  0  0
   42.5884    9.5690   99.5898 C   0  0  0  0  0  0  0  0  0  0  0  0
   41.9926   10.8855   99.8187 C   0  0  0  0  0  0  0  0  0  0  0  0
   43.8266    9.4717   99.3715 O   0  0  0  0  0  0  0  0  0  0  0  0
   40.7203    4.1107  103.2554 C   0  0  0  0  0  0  0  0  0  0  0  0
   41.6736    3.3066  103.0400 O   0  0  0  0  0  0  0  0  0  0  0  0
   40.5484    4.8156  104.4641 N   0  0  0  0  0  0  0  0  0  0  0  0
   41.4576    4.7007  105.6196 C   0  0  2  0  0  0  0  0  0  0  0  0
   40.8661    3.7800  106.6091 C   0  0  0  0  0  0  0  0  0  0  0  0
   39.7750    3.2101  106.2587 O   0  0  0  0  0  0  0  0  0  0  0  0
   41.3761    3.4677  107.8861 N   0  0  0  0  0  0  0  0  0  0  0  0
   40.6954    2.5510  108.7095 C   0  0  1  0  0  0  0  0  0  0  0  0
   41.3366    1.3424  109.2426 C   0  0  0  0  0  0  0  0  0  0  0  0
   42.5357    1.4680  110.1025 C   0  0  0  0  0  0  0  0  0  0  0  0
   43.7545    2.0180  109.5222 C   0  0  0  0  0  0  0  0  0  0  0  0
   44.7361    2.5539  110.4421 N   0  0  0  0  0  0  0  0  0  0  0  0
   44.0571    2.0779  108.3104 O   0  0  0  0  0  0  0  0  0  0  0  0
   40.1018    3.3018  109.8772 C   0  0  0  0  0  0  0  0  0  0  0  0
   39.4474    2.5843  110.6852 O   0  0  0  0  0  0  0  0  0  0  0  0
   40.2649    4.6978  110.0511 N   0  0  0  0  0  0  0  0  0  0  0  0
   39.6307    5.2993  111.2154 C   0  0  1  0  0  0  0  0  0  0  0  0
   40.5789    5.9421  112.1692 C   0  0  0  0  0  0  0  0  0  0  0  0
   38.6457    6.2817  110.6970 C   0  0  0  0  0  0  0  0  0  0  0  0
   38.7872    7.5338  110.8019 O   0  0  0  0  0  0  0  0  0  0  0  0
   37.5093    5.7889  110.0613 O   0  0  0  0  0  0  0  0  0  0  0  0
   41.9062    6.0188  106.1092 C   0  0  1  0  0  0  0  0  0  0  0  0
   40.7931    6.9454  106.5292 C   0  0  0  0  0  0  0  0  0  0  0  0
   42.7644    5.8993  107.1720 O   0  0  0  0  0  0  0  0  0  0  0  0
  1  2  1  0
  2  3  2  0
  2  4  1  0
  4  5  1  0
  5  6  1  0
  6  7  1  0
  7  8  1  0
  9  8  1  1
  9 10  1  0
 10 11  1  0
 11 12  2  0
 11 13  1  0
 13 14  1  1
 13 15  1  0
 15 16  1  0
 16 17  2  0
 16 18  1  0
 18 19  1  1
 19 20  1  0
 20 21  1  0
 21 22  1  0
 22 23  1  0
 18 24  1  0
 24 25  1  0
 25 26  2  0
 25 27  1  0
 27 28  1  0
  9 29  1  0
 29 30  2  0
 29 31  1  0
 31 32  1  0
 32 33  1  0
 33 34  2  0
 33 35  1  0
 35 36  1  0
 36 37  1  1
 37 38  1  0
 38 39  1  0
 39 40  1  0
 40 41  1  0
 36 42  1  0
 42 43  2  0
 42 44  1  0
 44 45  1  0
 45 46  1  6
 46 47  1  0
 47 48  1  0
 48 49  1  0
 49 50  1  0
 50 51  1  0
 51 52  1  0
 51 53  2  0
 45 54  1  0
 54 55  2  0
 54 56  1  0
 57 56  1  6
 57 58  1  0
 58 59  2  0
 58 60  1  0
 60 61  1  0
 61 62  1  1
 62 63  1  0
 63 64  1  0
 64 65  1  0
 64 66  2  0
 61 67  1  0
 67 68  2  0
 67 69  1  0
 69 70  1  0
 70 71  1  1
 70 72  1  0
 72 73  2  0
 72 74  1  0
 57 75  1  0
 75 76  1  1
 75 77  1  0
M  CHG  4  23   1  28   1  41   1  74  -1
M  END
>  <shape_align_shape_tanimoto>  (3) 
0.31891721894189906

>  <shape_align_color_tanimoto>  (3) 
0.056027116461843066

>  <metric>  (3) 
combo

>  <metric_score>  (3) 
0.187

>  <template_pid>  (3) 
5NNE

>  <template_shape_score>  (3) 
0.319

>  <template_color_score>  (3) 
0.056

>  <template_combo_score>  (3) 
0.187

$$$$
