5J9Y_shape_pose
     RDKit          3D

 30 34  0  0  0  0  0  0  0  0999 V2000
   17.5968   -2.9027  -32.7062 C   0  0  0  0  0  0  0  0  0  0  0  0
   16.4193   -2.0516  -32.2030 C   0  0  0  0  0  0  0  0  0  0  0  0
   15.7592   -1.4523  -33.3665 C   0  0  0  0  0  0  0  0  0  0  0  0
   16.2981   -1.6917  -34.5056 O   0  0  0  0  0  0  0  0  0  0  0  0
   14.6144   -0.6535  -33.3745 N   0  0  0  0  0  0  0  0  0  0  0  0
   14.1591   -0.1462  -34.6696 C   0  0  0  0  0  0  0  0  0  0  0  0
   12.7009   -0.3774  -34.9116 C   0  0  0  0  0  0  0  0  0  0  0  0
   11.9272    0.0981  -33.7071 C   0  0  0  0  0  0  0  0  0  0  0  0
   12.3856   -0.6694  -32.4914 C   0  0  1  0  0  0  0  0  0  0  0  0
   12.2642   -2.0986  -32.6981 N   0  0  0  0  0  0  0  0  0  0  0  0
   13.2242   -2.9871  -32.4994 N   0  0  0  0  0  0  0  0  0  0  0  0
   12.8284   -4.2290  -32.7760 C   0  0  0  0  0  0  0  0  0  0  0  0
   13.6972   -5.3985  -32.6317 C   0  0  0  0  0  0  0  0  0  0  0  0
   13.9983   -6.1897  -33.7163 C   0  0  0  0  0  0  0  0  0  0  0  0
   14.8427   -7.2942  -33.6079 C   0  0  0  0  0  0  0  0  0  0  0  0
   15.3747   -7.5790  -32.3744 C   0  0  0  0  0  0  0  0  0  0  0  0
   15.0971   -6.8070  -31.2543 C   0  0  0  0  0  0  0  0  0  0  0  0
   15.6557   -7.1370  -30.0371 C   0  0  0  0  0  0  0  0  0  0  0  0
   15.3515   -6.3467  -28.9484 C   0  0  0  0  0  0  0  0  0  0  0  0
   14.5141   -5.2547  -29.0614 C   0  0  0  0  0  0  0  0  0  0  0  0
   13.9651   -4.9441  -30.3002 C   0  0  0  0  0  0  0  0  0  0  0  0
   14.2595   -5.7326  -31.4193 C   0  0  0  0  0  0  0  0  0  0  0  0
   11.5182   -4.1438  -33.1825 C   0  0  0  0  0  0  0  0  0  0  0  0
   10.6349   -5.1176  -33.5755 C   0  0  0  0  0  0  0  0  0  0  0  0
   11.0759   -6.4677  -33.5858 N   0  0  0  0  0  0  0  0  0  0  0  0
    9.3994   -4.7255  -33.9174 N   0  0  0  0  0  0  0  0  0  0  0  0
    9.0838   -3.4132  -33.8618 C   0  0  0  0  0  0  0  0  0  0  0  0
    9.9467   -2.4594  -33.4765 N   0  0  0  0  0  0  0  0  0  0  0  0
   11.1966   -2.8012  -33.1229 C   0  0  0  0  0  0  0  0  0  0  0  0
   13.8314   -0.2780  -32.2250 C   0  0  0  0  0  0  0  0  0  0  0  0
  1  2  1  0
  2  3  1  0
  3  4  2  0
  3  5  1  0
  5  6  1  0
  6  7  1  0
  7  8  1  0
  8  9  1  0
  9 10  1  6
 10 11  1  0
 11 12  2  0
 12 13  1  0
 13 14  2  0
 14 15  1  0
 15 16  2  0
 16 17  1  0
 17 18  2  0
 18 19  1  0
 19 20  2  0
 20 21  1  0
 21 22  2  0
 12 23  1  0
 23 24  2  0
 24 25  1  0
 24 26  1  0
 26 27  2  0
 27 28  1  0
 28 29  2  0
  9 30  1  0
 30  5  1  0
 29 10  1  0
 22 13  1  0
 29 23  1  0
 22 17  1  0
M  END
>  <shape_align_shape_tanimoto>  (1) 
0.62988639520116052

>  <shape_align_color_tanimoto>  (1) 
0.075226443226317954

>  <metric>  (1) 
shape

>  <metric_score>  (1) 
0.630

>  <template_pid>  (1) 
5J9Y

>  <template_shape_score>  (1) 
0.630

>  <template_color_score>  (1) 
0.075

>  <template_combo_score>  (1) 
0.353

$$$$
5J9Y_color_pose
     RDKit          3D

 30 34  0  0  0  0  0  0  0  0999 V2000
   18.1000   -5.9744  -33.1353 C   0  0  0  0  0  0  0  0  0  0  0  0
   17.1379   -7.1308  -32.9047 C   0  0  0  0  0  0  0  0  0  0  0  0
   15.8260   -6.6901  -32.4423 C   0  0  0  0  0  0  0  0  0  0  0  0
   14.9745   -6.3072  -33.3180 O   0  0  0  0  0  0  0  0  0  0  0  0
   15.4673   -6.6712  -31.0882 N   0  0  0  0  0  0  0  0  0  0  0  0
   16.3449   -7.0777  -29.9961 C   0  0  0  0  0  0  0  0  0  0  0  0
   16.1775   -6.0126  -28.9311 C   0  0  0  0  0  0  0  0  0  0  0  0
   15.7755   -4.6770  -29.5763 C   0  0  0  0  0  0  0  0  0  0  0  0
   14.3915   -4.8147  -30.0933 C   0  0  1  0  0  0  0  0  0  0  0  0
   14.0194   -3.8032  -31.0572 N   0  0  0  0  0  0  0  0  0  0  0  0
   12.7648   -3.4880  -31.3175 N   0  0  0  0  0  0  0  0  0  0  0  0
   12.6704   -2.5292  -32.2520 C   0  0  0  0  0  0  0  0  0  0  0  0
   11.4061   -1.9895  -32.7485 C   0  0  0  0  0  0  0  0  0  0  0  0
   11.1061   -0.6375  -32.6797 C   0  0  0  0  0  0  0  0  0  0  0  0
    9.8837   -0.2067  -33.1644 C   0  0  0  0  0  0  0  0  0  0  0  0
    8.9687   -1.0825  -33.7082 C   0  0  0  0  0  0  0  0  0  0  0  0
    9.2674   -2.4418  -33.7787 C   0  0  0  0  0  0  0  0  0  0  0  0
    8.3303   -3.3166  -34.3329 C   0  0  0  0  0  0  0  0  0  0  0  0
    8.6198   -4.6764  -34.4089 C   0  0  0  0  0  0  0  0  0  0  0  0
    9.8287   -5.1285  -33.9343 C   0  0  0  0  0  0  0  0  0  0  0  0
   10.7349   -4.2350  -33.3904 C   0  0  0  0  0  0  0  0  0  0  0  0
   10.4857   -2.8815  -33.2969 C   0  0  0  0  0  0  0  0  0  0  0  0
   13.9448   -2.2128  -32.6104 C   0  0  0  0  0  0  0  0  0  0  0  0
   14.4692   -1.2987  -33.5273 C   0  0  0  0  0  0  0  0  0  0  0  0
   13.6015   -0.4916  -34.2865 N   0  0  0  0  0  0  0  0  0  0  0  0
   15.8193   -1.2316  -33.6475 N   0  0  0  0  0  0  0  0  0  0  0  0
   16.5928   -2.0333  -32.8916 C   0  0  0  0  0  0  0  0  0  0  0  0
   16.0764   -2.9090  -32.0122 N   0  0  0  0  0  0  0  0  0  0  0  0
   14.7668   -3.0259  -31.8462 C   0  0  0  0  0  0  0  0  0  0  0  0
   14.1297   -6.2180  -30.6657 C   0  0  0  0  0  0  0  0  0  0  0  0
  1  2  1  0
  2  3  1  0
  3  4  2  0
  3  5  1  0
  5  6  1  0
  6  7  1  0
  7  8  1  0
  8  9  1  0
  9 10  1  6
 10 11  1  0
 11 12  2  0
 12 13  1  0
 13 14  2  0
 14 15  1  0
 15 16  2  0
 16 17  1  0
 17 18  2  0
 18 19  1  0
 19 20  2  0
 20 21  1  0
 21 22  2  0
 12 23  1  0
 23 24  2  0
 24 25  1  0
 24 26  1  0
 26 27  2  0
 27 28  1  0
 28 29  2  0
  9 30  1  0
 30  5  1  0
 29 10  1  0
 22 13  1  0
 29 23  1  0
 22 17  1  0
M  END
>  <shape_align_shape_tanimoto>  (2) 
0.53119603682656635

>  <shape_align_color_tanimoto>  (2) 
0.1090909717415789

>  <metric>  (2) 
color

>  <metric_score>  (2) 
0.109

>  <template_pid>  (2) 
5J9Y

>  <template_shape_score>  (2) 
0.531

>  <template_color_score>  (2) 
0.109

>  <template_combo_score>  (2) 
0.320

$$$$
5J9Y_combo_pose
     RDKit          3D

 30 34  0  0  0  0  0  0  0  0999 V2000
   17.7674   -1.6020  -31.5940 C   0  0  0  0  0  0  0  0  0  0  0  0
   16.8326   -2.2172  -32.6164 C   0  0  0  0  0  0  0  0  0  0  0  0
   16.4007   -1.1253  -33.5346 C   0  0  0  0  0  0  0  0  0  0  0  0
   17.1821   -0.8132  -34.4676 O   0  0  0  0  0  0  0  0  0  0  0  0
   15.1830   -0.4460  -33.4022 N   0  0  0  0  0  0  0  0  0  0  0  0
   14.8728    0.6012  -34.3649 C   0  0  0  0  0  0  0  0  0  0  0  0
   13.6001    0.1207  -35.0609 C   0  0  0  0  0  0  0  0  0  0  0  0
   12.4728   -0.1357  -34.1213 C   0  0  0  0  0  0  0  0  0  0  0  0
   12.8099   -0.8859  -32.8824 C   0  0  1  0  0  0  0  0  0  0  0  0
   12.4408   -2.2994  -32.9779 N   0  0  0  0  0  0  0  0  0  0  0  0
   13.3134   -3.2723  -32.7941 N   0  0  0  0  0  0  0  0  0  0  0  0
   12.6349   -4.4323  -32.9521 C   0  0  0  0  0  0  0  0  0  0  0  0
   13.2867   -5.7273  -32.8147 C   0  0  0  0  0  0  0  0  0  0  0  0
   13.2947   -6.6869  -33.8034 C   0  0  0  0  0  0  0  0  0  0  0  0
   13.9267   -7.9096  -33.6630 C   0  0  0  0  0  0  0  0  0  0  0  0
   14.5834   -8.2100  -32.4996 C   0  0  0  0  0  0  0  0  0  0  0  0
   14.6017   -7.2744  -31.4772 C   0  0  0  0  0  0  0  0  0  0  0  0
   15.2632   -7.5834  -30.3076 C   0  0  0  0  0  0  0  0  0  0  0  0
   15.3067   -6.6801  -29.2569 C   0  0  0  0  0  0  0  0  0  0  0  0
   14.6828   -5.4695  -29.3919 C   0  0  0  0  0  0  0  0  0  0  0  0
   14.0257   -5.1769  -30.5691 C   0  0  0  0  0  0  0  0  0  0  0  0
   13.9581   -6.0441  -31.6363 C   0  0  0  0  0  0  0  0  0  0  0  0
   11.3173   -4.1404  -33.2385 C   0  0  0  0  0  0  0  0  0  0  0  0
   10.2218   -4.9415  -33.4819 C   0  0  0  0  0  0  0  0  0  0  0  0
   10.3493   -6.3521  -33.4602 N   0  0  0  0  0  0  0  0  0  0  0  0
    9.0355   -4.3532  -33.7346 N   0  0  0  0  0  0  0  0  0  0  0  0
    8.9279   -3.0088  -33.7481 C   0  0  0  0  0  0  0  0  0  0  0  0
   10.0157   -2.2199  -33.5065 N   0  0  0  0  0  0  0  0  0  0  0  0
   11.2220   -2.7671  -33.2488 C   0  0  0  0  0  0  0  0  0  0  0  0
   14.2015   -0.7021  -32.3771 C   0  0  0  0  0  0  0  0  0  0  0  0
  1  2  1  0
  2  3  1  0
  3  4  2  0
  3  5  1  0
  5  6  1  0
  6  7  1  0
  7  8  1  0
  8  9  1  0
  9 10  1  6
 10 11  1  0
 11 12  2  0
 12 13  1  0
 13 14  2  0
 14 15  1  0
 15 16  2  0
 16 17  1  0
 17 18  2  0
 18 19  1  0
 19 20  2  0
 20 21  1  0
 21 22  2  0
 12 23  1  0
 23 24  2  0
 24 25  1  0
 24 26  1  0
 26 27  2  0
 27 28  1  0
 28 29  2  0
  9 30  1  0
 30  5  1  0
 29 10  1  0
 22 13  1  0
 29 23  1  0
 22 17  1  0
M  END
>  <shape_align_shape_tanimoto>  (3) 
0.62036510908716469

>  <shape_align_color_tanimoto>  (3) 
0.090468137538702018

>  <metric>  (3) 
combo

>  <metric_score>  (3) 
0.355

>  <template_pid>  (3) 
5J9Y

>  <template_shape_score>  (3) 
0.620

>  <template_color_score>  (3) 
0.090

>  <template_combo_score>  (3) 
0.355

$$$$
