1L5R_shape_pose
     RDKit          3D

 27 29  0  0  0  0  0  0  0  0999 V2000
   31.9423   17.4727   28.0877 C   0  0  0  0  0  0  0  0  0  0  0  0
   32.3771   18.8903   28.0133 C   0  0  0  0  0  0  0  0  0  0  0  0
   32.3918   19.5826   26.8421 C   0  0  0  0  0  0  0  0  0  0  0  0
   32.7995   20.8946   26.8042 C   0  0  0  0  0  0  0  0  0  0  0  0
   32.7950   21.5324   25.6055 N   0  0  0  0  0  0  0  0  0  0  0  0
   33.1926   22.8270   25.5239 C   0  0  0  0  0  0  0  0  0  0  0  0
   33.1815   23.4463   24.2856 C   0  0  0  0  0  0  0  0  0  0  0  0
   32.7988   22.8089   23.2480 O   0  0  0  0  0  0  0  0  0  0  0  0
   33.5808   24.7301   24.1973 N   0  0  0  0  0  0  0  0  0  0  0  0
   33.9765   25.3679   25.3095 C   0  0  0  0  0  0  0  0  0  0  0  0
   34.3415   26.5675   25.1775 O   0  0  0  0  0  0  0  0  0  0  0  0
   33.9864   24.7648   26.5112 N   0  0  0  0  0  0  0  0  0  0  0  0
   33.5960   23.4702   26.6762 C   0  0  0  0  0  0  0  0  0  0  0  0
   33.6163   22.8766   27.8893 N   0  0  0  0  0  0  0  0  0  0  0  0
   34.0212   23.5709   29.0662 C   0  0  0  0  0  0  0  0  0  0  0  0
   35.5136   23.5017   29.3517 C   0  0  2  0  0  0  0  0  0  0  0  0
   36.0024   22.2331   29.5259 O   0  0  0  0  0  0  0  0  0  0  0  0
   35.7658   24.3928   30.5590 C   0  0  2  0  0  0  0  0  0  0  0  0
   35.2685   25.6834   30.3816 O   0  0  0  0  0  0  0  0  0  0  0  0
   37.2596   24.5183   30.8027 C   0  0  2  0  0  0  0  0  0  0  0  0
   37.8527   23.2763   30.9928 O   0  0  0  0  0  0  0  0  0  0  0  0
   37.4961   25.4090   32.0004 C   0  0  0  0  0  0  0  0  0  0  0  0
   36.9296   24.7733   33.1131 O   0  0  0  0  0  0  0  0  0  0  0  0
   33.2158   21.5925   27.9302 C   0  0  0  0  0  0  0  0  0  0  0  0
   33.1908   20.8587   29.1162 C   0  0  0  0  0  0  0  0  0  0  0  0
   32.7829   19.5439   29.1579 C   0  0  0  0  0  0  0  0  0  0  0  0
   32.7620   18.7745   30.4334 C   0  0  0  0  0  0  0  0  0  0  0  0
  1  2  1  0
  2  3  2  0
  3  4  1  0
  4  5  2  0
  5  6  1  0
  6  7  1  0
  7  8  2  0
  7  9  1  0
  9 10  1  0
 10 11  2  0
 10 12  1  0
 12 13  1  0
 13 14  1  0
 14 15  1  0
 15 16  1  0
 16 17  1  1
 16 18  1  0
 18 19  1  6
 18 20  1  0
 20 21  1  1
 20 22  1  0
 22 23  1  0
 14 24  2  0
 24 25  1  0
 25 26  2  0
 26 27  1  0
 26  2  1  0
 24  4  1  0
 13  6  2  0
M  CHG  1  14   1
M  END
>  <shape_align_shape_tanimoto>  (1) 
0.58904160651563398

>  <shape_align_color_tanimoto>  (1) 
0.02357428594401725

>  <metric>  (1) 
shape

>  <metric_score>  (1) 
0.589

>  <template_pid>  (1) 
1L5R

>  <template_shape_score>  (1) 
0.589

>  <template_color_score>  (1) 
0.024

>  <template_combo_score>  (1) 
0.306

$$$$
1L5R_color_pose
     RDKit          3D

 27 29  0  0  0  0  0  0  0  0999 V2000
   32.3889   18.1100   31.3811 C   0  0  0  0  0  0  0  0  0  0  0  0
   32.8324   19.3706   30.7468 C   0  0  0  0  0  0  0  0  0  0  0  0
   32.6115   19.6469   29.4133 C   0  0  0  0  0  0  0  0  0  0  0  0
   33.0495   20.8410   28.8791 C   0  0  0  0  0  0  0  0  0  0  0  0
   32.7902   21.0300   27.5605 N   0  0  0  0  0  0  0  0  0  0  0  0
   33.2007   22.1819   26.9992 C   0  0  0  0  0  0  0  0  0  0  0  0
   32.9266   22.3460   25.6557 C   0  0  0  0  0  0  0  0  0  0  0  0
   32.3120   21.4400   25.0033 O   0  0  0  0  0  0  0  0  0  0  0  0
   33.3289   23.4869   25.0673 N   0  0  0  0  0  0  0  0  0  0  0  0
   33.9734   24.4084   25.8040 C   0  0  0  0  0  0  0  0  0  0  0  0
   34.3359   25.4643   25.2215 O   0  0  0  0  0  0  0  0  0  0  0  0
   34.2420   24.2495   27.1175 N   0  0  0  0  0  0  0  0  0  0  0  0
   33.8620   23.1275   27.7570 C   0  0  0  0  0  0  0  0  0  0  0  0
   34.1348   22.9729   29.0647 N   0  0  0  0  0  0  0  0  0  0  0  0
   34.8160   23.9675   29.8616 C   0  0  0  0  0  0  0  0  0  0  0  0
   36.2784   23.7338   29.7763 C   0  0  2  0  0  0  0  0  0  0  0  0
   36.7523   22.5252   30.2159 O   0  0  0  0  0  0  0  0  0  0  0  0
   37.1707   24.8476   30.2303 C   0  0  2  0  0  0  0  0  0  0  0  0
   38.4323   24.5521   29.6141 O   0  0  0  0  0  0  0  0  0  0  0  0
   37.4629   24.8984   31.6927 C   0  0  2  0  0  0  0  0  0  0  0  0
   37.9510   23.7053   32.2273 O   0  0  0  0  0  0  0  0  0  0  0  0
   36.4330   25.5575   32.5509 C   0  0  0  0  0  0  0  0  0  0  0  0
   37.0161   25.8793   33.8071 O   0  0  0  0  0  0  0  0  0  0  0  0
   33.7138   21.8029   29.6186 C   0  0  0  0  0  0  0  0  0  0  0  0
   33.9291   21.5167   30.9488 C   0  0  0  0  0  0  0  0  0  0  0  0
   33.4927   20.3126   31.5070 C   0  0  0  0  0  0  0  0  0  0  0  0
   33.7358   20.0173   32.9585 C   0  0  0  0  0  0  0  0  0  0  0  0
  1  2  1  0
  2  3  2  0
  3  4  1  0
  4  5  2  0
  5  6  1  0
  6  7  1  0
  7  8  2  0
  7  9  1  0
  9 10  1  0
 10 11  2  0
 10 12  1  0
 12 13  1  0
 13 14  1  0
 14 15  1  0
 15 16  1  0
 16 17  1  1
 16 18  1  0
 18 19  1  6
 18 20  1  0
 20 21  1  1
 20 22  1  0
 22 23  1  0
 14 24  2  0
 24 25  1  0
 25 26  2  0
 26 27  1  0
 26  2  1  0
 24  4  1  0
 13  6  2  0
M  CHG  1  14   1
M  END
>  <shape_align_shape_tanimoto>  (2) 
0.50572068772819312

>  <shape_align_color_tanimoto>  (2) 
0.10424103275575429

>  <metric>  (2) 
color

>  <metric_score>  (2) 
0.104

>  <template_pid>  (2) 
1L5R

>  <template_shape_score>  (2) 
0.506

>  <template_color_score>  (2) 
0.104

>  <template_combo_score>  (2) 
0.305

$$$$
1L5R_combo_pose
     RDKit          3D

 27 29  0  0  0  0  0  0  0  0999 V2000
   30.8133   18.2626   26.7678 C   0  0  0  0  0  0  0  0  0  0  0  0
   31.6804   19.4561   26.8806 C   0  0  0  0  0  0  0  0  0  0  0  0
   31.6845   20.4877   25.9658 C   0  0  0  0  0  0  0  0  0  0  0  0
   32.5258   21.5717   26.1408 C   0  0  0  0  0  0  0  0  0  0  0  0
   32.4456   22.5336   25.1860 N   0  0  0  0  0  0  0  0  0  0  0  0
   33.2514   23.5985   25.3413 C   0  0  0  0  0  0  0  0  0  0  0  0
   33.1660   24.5790   24.3583 C   0  0  0  0  0  0  0  0  0  0  0  0
   32.3580   24.4392   23.3874 O   0  0  0  0  0  0  0  0  0  0  0  0
   33.9548   25.6611   24.4697 N   0  0  0  0  0  0  0  0  0  0  0  0
   34.7817   25.7426   25.5178 C   0  0  0  0  0  0  0  0  0  0  0  0
   35.5089   26.7802   25.5849 O   0  0  0  0  0  0  0  0  0  0  0  0
   34.8741   24.8019   26.4751 N   0  0  0  0  0  0  0  0  0  0  0  0
   34.1094   23.6983   26.4159 C   0  0  0  0  0  0  0  0  0  0  0  0
   34.2077   22.7568   27.3773 N   0  0  0  0  0  0  0  0  0  0  0  0
   35.0839   22.8541   28.5039 C   0  0  0  0  0  0  0  0  0  0  0  0
   34.3904   23.4654   29.6920 C   0  0  2  0  0  0  0  0  0  0  0  0
   33.9465   24.7490   29.3975 O   0  0  0  0  0  0  0  0  0  0  0  0
   35.2412   23.5264   30.9375 C   0  0  2  0  0  0  0  0  0  0  0  0
   34.3734   24.0018   31.9729 O   0  0  0  0  0  0  0  0  0  0  0  0
   36.3182   24.5521   30.8466 C   0  0  2  0  0  0  0  0  0  0  0  0
   37.3218   24.3010   29.9285 O   0  0  0  0  0  0  0  0  0  0  0  0
   37.0310   24.6354   32.2052 C   0  0  0  0  0  0  0  0  0  0  0  0
   37.9637   25.6696   32.1560 O   0  0  0  0  0  0  0  0  0  0  0  0
   33.3910   21.6792   27.2193 C   0  0  0  0  0  0  0  0  0  0  0  0
   33.3692   20.6354   28.1217 C   0  0  0  0  0  0  0  0  0  0  0  0
   32.5300   19.5357   27.9635 C   0  0  0  0  0  0  0  0  0  0  0  0
   32.5479   18.4403   28.9654 C   0  0  0  0  0  0  0  0  0  0  0  0
  1  2  1  0
  2  3  2  0
  3  4  1  0
  4  5  2  0
  5  6  1  0
  6  7  1  0
  7  8  2  0
  7  9  1  0
  9 10  1  0
 10 11  2  0
 10 12  1  0
 12 13  1  0
 13 14  1  0
 14 15  1  0
 15 16  1  0
 16 17  1  6
 16 18  1  0
 18 19  1  1
 18 20  1  0
 20 21  1  6
 20 22  1  0
 22 23  1  0
 14 24  2  0
 24 25  1  0
 25 26  2  0
 26 27  1  0
 26  2  1  0
 24  4  1  0
 13  6  2  0
M  CHG  1  14   1
M  END
>  <shape_align_shape_tanimoto>  (3) 
0.5779070018885144

>  <shape_align_color_tanimoto>  (3) 
0.057292435936756252

>  <metric>  (3) 
combo

>  <metric_score>  (3) 
0.318

>  <template_pid>  (3) 
1L5R

>  <template_shape_score>  (3) 
0.578

>  <template_color_score>  (3) 
0.057

>  <template_combo_score>  (3) 
0.318

$$$$
