2X7X_shape_pose
     RDKit          3D

 12 12  0  0  0  0  0  0  0  0999 V2000
   13.5448   10.1069   10.9299 O   0  0  0  0  0  0  0  0  0  0  0  0
   14.5687   10.6980   10.1941 C   0  0  0  0  0  0  0  0  0  0  0  0
   15.7268   10.9351   11.1314 C   0  0  1  0  0  0  0  0  0  0  0  0
   16.2102    9.7858   11.7029 O   0  0  0  0  0  0  0  0  0  0  0  0
   17.5717    9.7065   11.4527 C   0  0  2  0  0  0  0  0  0  0  0  0
   17.7817    9.2218   10.1658 O   0  0  0  0  0  0  0  0  0  0  0  0
   18.3502    8.9608   12.4922 C   0  0  0  0  0  0  0  0  0  0  0  0
   17.8927    7.6616   12.5899 O   0  0  0  0  0  0  0  0  0  0  0  0
   17.9713   11.1698   11.4256 C   0  0  1  0  0  0  0  0  0  0  0  0
   19.2409   11.4048   10.9897 O   0  0  0  0  0  0  0  0  0  0  0  0
   16.8855   11.6223   10.4380 C   0  0  2  0  0  0  0  0  0  0  0  0
   16.7651   12.9896   10.3599 O   0  0  0  0  0  0  0  0  0  0  0  0
  1  2  1  0
  3  2  1  6
  3  4  1  0
  4  5  1  0
  5  6  1  6
  5  7  1  0
  7  8  1  0
  5  9  1  0
  9 10  1  6
  9 11  1  0
 11 12  1  1
 11  3  1  0
M  END
>  <shape_align_shape_tanimoto>  (1) 
0.62373498705219665

>  <shape_align_color_tanimoto>  (1) 
0.08135372903136058

>  <metric>  (1) 
shape

>  <metric_score>  (1) 
0.624

>  <template_pid>  (1) 
2X7X

>  <template_shape_score>  (1) 
0.624

>  <template_color_score>  (1) 
0.081

>  <template_combo_score>  (1) 
0.353

$$$$
2X7X_color_pose
     RDKit          3D

 12 12  0  0  0  0  0  0  0  0999 V2000
   19.8590    9.1211   10.0777 O   0  0  0  0  0  0  0  0  0  0  0  0
   19.1676    9.2077   11.2844 C   0  0  0  0  0  0  0  0  0  0  0  0
   17.6929    9.1239   11.0245 C   0  0  1  0  0  0  0  0  0  0  0  0
   16.9138    9.2009   12.1655 O   0  0  0  0  0  0  0  0  0  0  0  0
   15.6686    9.6657   11.8036 C   0  0  2  0  0  0  0  0  0  0  0  0
   15.3522   10.8700   12.4686 O   0  0  0  0  0  0  0  0  0  0  0  0
   14.6428    8.6581   12.2190 C   0  0  0  0  0  0  0  0  0  0  0  0
   14.7511    8.5255   13.6104 O   0  0  0  0  0  0  0  0  0  0  0  0
   15.6756    9.9888   10.3403 C   0  0  1  0  0  0  0  0  0  0  0  0
   14.9213   11.1063   10.0214 O   0  0  0  0  0  0  0  0  0  0  0  0
   17.1745   10.2498   10.1559 C   0  0  2  0  0  0  0  0  0  0  0  0
   17.5580   10.1254    8.8369 O   0  0  0  0  0  0  0  0  0  0  0  0
  1  2  1  0
  3  2  1  1
  3  4  1  0
  4  5  1  0
  5  6  1  1
  5  7  1  0
  7  8  1  0
  5  9  1  0
  9 10  1  1
  9 11  1  0
 11 12  1  6
 11  3  1  0
M  END
>  <shape_align_shape_tanimoto>  (2) 
0.61806026298267247

>  <shape_align_color_tanimoto>  (2) 
0.13586802406195461

>  <metric>  (2) 
color

>  <metric_score>  (2) 
0.136

>  <template_pid>  (2) 
2X7X

>  <template_shape_score>  (2) 
0.618

>  <template_color_score>  (2) 
0.136

>  <template_combo_score>  (2) 
0.377

$$$$
2X7X_combo_pose
     RDKit          3D

 12 12  0  0  0  0  0  0  0  0999 V2000
   17.1524    7.2232    8.1146 O   0  0  0  0  0  0  0  0  0  0  0  0
   16.9661    7.1430    9.4805 C   0  0  0  0  0  0  0  0  0  0  0  0
   16.2752    8.3656   10.0318 C   0  0  1  0  0  0  0  0  0  0  0  0
   16.0963    8.2610   11.4254 O   0  0  0  0  0  0  0  0  0  0  0  0
   15.9715    9.5242   11.9357 C   0  0  2  0  0  0  0  0  0  0  0  0
   16.9449    9.7272   12.9333 O   0  0  0  0  0  0  0  0  0  0  0  0
   14.6200    9.7779   12.5672 C   0  0  0  0  0  0  0  0  0  0  0  0
   14.4412    8.8704   13.6068 O   0  0  0  0  0  0  0  0  0  0  0  0
   16.2728   10.5068   10.8368 C   0  0  1  0  0  0  0  0  0  0  0  0
   16.9045   11.6552   11.2351 O   0  0  0  0  0  0  0  0  0  0  0  0
   17.1510    9.6016    9.9609 C   0  0  2  0  0  0  0  0  0  0  0  0
   17.3272   10.0856    8.6941 O   0  0  0  0  0  0  0  0  0  0  0  0
  1  2  1  0
  3  2  1  1
  3  4  1  0
  4  5  1  0
  5  6  1  1
  5  7  1  0
  7  8  1  0
  5  9  1  0
  9 10  1  1
  9 11  1  0
 11 12  1  6
 11  3  1  0
M  END
>  <shape_align_shape_tanimoto>  (3) 
0.62098515518765984

>  <shape_align_color_tanimoto>  (3) 
0.13424498592289894

>  <metric>  (3) 
combo

>  <metric_score>  (3) 
0.378

>  <template_pid>  (3) 
2X7X

>  <template_shape_score>  (3) 
0.621

>  <template_color_score>  (3) 
0.134

>  <template_combo_score>  (3) 
0.378

$$$$
