4YT6_shape_pose
     RDKit          3D

 36 39  0  0  0  0  0  0  0  0999 V2000
    3.8498  -27.7014  -10.0543 C   0  0  0  0  0  0  0  0  0  0  0  0
    4.8423  -26.7353  -10.6683 C   0  0  0  0  0  0  0  0  0  0  0  0
    4.3598  -26.1745  -11.8535 O   0  0  0  0  0  0  0  0  0  0  0  0
    3.2055  -25.4135  -11.9739 C   0  0  0  0  0  0  0  0  0  0  0  0
    2.3781  -25.1122  -10.9152 C   0  0  0  0  0  0  0  0  0  0  0  0
    1.2463  -24.3508  -11.1040 C   0  0  0  0  0  0  0  0  0  0  0  0
    0.3663  -24.0060  -10.0936 O   0  0  0  0  0  0  0  0  0  0  0  0
    0.4524  -24.3491   -8.7505 C   0  0  0  0  0  0  0  0  0  0  0  0
    0.5709  -23.0439   -7.9545 C   0  0  0  0  0  0  0  0  0  0  0  0
   -0.7994  -25.0175   -8.2247 C   0  0  0  0  0  0  0  0  0  0  0  0
    0.9428  -23.8858  -12.3772 C   0  0  0  0  0  0  0  0  0  0  0  0
   -0.1786  -23.1277  -12.5816 F   0  0  0  0  0  0  0  0  0  0  0  0
    1.7671  -24.1839  -13.4419 C   0  0  0  0  0  0  0  0  0  0  0  0
    1.3802  -23.6393  -14.7789 C   0  0  1  0  0  0  0  0  0  0  0  0
    0.0179  -23.8748  -15.1309 N   0  0  0  0  0  0  0  0  0  0  0  0
   -0.5857  -25.1405  -15.3246 C   0  0  0  0  0  0  0  0  0  0  0  0
    0.0805  -26.3413  -15.2166 C   0  0  0  0  0  0  0  0  0  0  0  0
   -0.5277  -27.5689  -15.4017 C   0  0  0  0  0  0  0  0  0  0  0  0
   -1.8702  -27.6130  -15.7110 C   0  0  0  0  0  0  0  0  0  0  0  0
   -2.5722  -28.8905  -15.9202 C   0  0  0  0  0  0  0  0  0  0  0  0
   -2.0743  -30.0362  -15.2360 N   0  0  0  0  0  0  0  0  0  0  0  0
   -3.5994  -28.9460  -16.6991 N   0  0  0  0  0  0  0  0  0  0  0  0
   -2.5798  -26.4359  -15.8302 C   0  0  0  0  0  0  0  0  0  0  0  0
   -1.9429  -25.2293  -15.6393 C   0  0  0  0  0  0  0  0  0  0  0  0
    1.6765  -22.1608  -14.8240 C   0  0  0  0  0  0  0  0  0  0  0  0
    2.3412  -21.4227  -13.9173 N   0  0  0  0  0  0  0  0  0  0  0  0
    2.3812  -20.1349  -14.3536 C   0  0  0  0  0  0  0  0  0  0  0  0
    2.9958  -18.9824  -13.7000 C   0  0  0  0  0  0  0  0  0  0  0  0
    3.6334  -19.1326  -12.4898 C   0  0  0  0  0  0  0  0  0  0  0  0
    4.2025  -18.0199  -11.9028 C   0  0  0  0  0  0  0  0  0  0  0  0
    4.1460  -16.7582  -12.5042 C   0  0  0  0  0  0  0  0  0  0  0  0
    3.4928  -16.6678  -13.7192 C   0  0  0  0  0  0  0  0  0  0  0  0
    2.9152  -17.7572  -14.3305 C   0  0  0  0  0  0  0  0  0  0  0  0
    1.7098  -20.1541  -15.5563 C   0  0  0  0  0  0  0  0  0  0  0  0
    1.2760  -21.3912  -15.8496 N   0  0  0  0  0  0  0  0  0  0  0  0
    2.8975  -24.9468  -13.2416 C   0  0  0  0  0  0  0  0  0  0  0  0
  1  2  1  0
  2  3  1  0
  3  4  1  0
  4  5  2  0
  5  6  1  0
  6  7  1  0
  7  8  1  0
  8  9  1  0
  8 10  1  0
  6 11  2  0
 11 12  1  0
 11 13  1  0
 13 14  1  0
 14 15  1  1
 15 16  1  0
 16 17  2  0
 17 18  1  0
 18 19  2  0
 19 20  1  0
 20 21  1  0
 20 22  2  0
 19 23  1  0
 23 24  2  0
 14 25  1  0
 25 26  2  0
 26 27  1  0
 27 28  1  0
 28 29  2  0
 29 30  1  0
 30 31  2  0
 31 32  1  0
 32 33  2  0
 27 34  2  0
 34 35  1  0
 13 36  2  0
 36  4  1  0
 24 16  1  0
 35 25  1  0
 33 28  1  0
M  CHG  1  22   1
M  END
>  <shape_align_shape_tanimoto>  (1) 
0.31711057667247072

>  <shape_align_color_tanimoto>  (1) 
0.0045609264634396641

>  <metric>  (1) 
shape

>  <metric_score>  (1) 
0.317

>  <template_pid>  (1) 
4YT6

>  <template_shape_score>  (1) 
0.317

>  <template_color_score>  (1) 
0.005

>  <template_combo_score>  (1) 
0.161

$$$$
4YT6_color_pose
     RDKit          3D

 36 39  0  0  0  0  0  0  0  0999 V2000
    5.2346  -19.8273   -8.9725 C   0  0  0  0  0  0  0  0  0  0  0  0
    5.9625  -20.9445   -8.2836 C   0  0  0  0  0  0  0  0  0  0  0  0
    5.9168  -22.1549   -8.9720 O   0  0  0  0  0  0  0  0  0  0  0  0
    4.7884  -22.8797   -9.3028 C   0  0  0  0  0  0  0  0  0  0  0  0
    3.5495  -22.4447   -8.9565 C   0  0  0  0  0  0  0  0  0  0  0  0
    2.4633  -23.2106   -9.3155 C   0  0  0  0  0  0  0  0  0  0  0  0
    1.1950  -22.8254   -8.9957 O   0  0  0  0  0  0  0  0  0  0  0  0
    0.7704  -21.6971   -8.3150 C   0  0  0  0  0  0  0  0  0  0  0  0
    0.0742  -22.1326   -7.0182 C   0  0  0  0  0  0  0  0  0  0  0  0
   -0.2451  -20.8640   -9.0675 C   0  0  0  0  0  0  0  0  0  0  0  0
    2.6496  -24.4042  -10.0192 C   0  0  0  0  0  0  0  0  0  0  0  0
    1.5332  -25.0834  -10.3337 F   0  0  0  0  0  0  0  0  0  0  0  0
    3.8845  -24.8684  -10.3818 C   0  0  0  0  0  0  0  0  0  0  0  0
    4.1608  -26.1189  -11.1203 C   0  0  1  0  0  0  0  0  0  0  0  0
    3.9524  -27.3383  -10.4446 N   0  0  0  0  0  0  0  0  0  0  0  0
    2.8456  -28.2012  -10.4410 C   0  0  0  0  0  0  0  0  0  0  0  0
    1.7005  -28.0534  -11.1876 C   0  0  0  0  0  0  0  0  0  0  0  0
    0.6320  -28.9257  -11.1421 C   0  0  0  0  0  0  0  0  0  0  0  0
    0.6594  -30.0272  -10.3179 C   0  0  0  0  0  0  0  0  0  0  0  0
   -0.4661  -30.9540  -10.2649 C   0  0  0  0  0  0  0  0  0  0  0  0
   -1.8055  -30.5304  -10.5095 N   0  0  0  0  0  0  0  0  0  0  0  0
   -0.2800  -32.2013   -9.9913 N   0  0  0  0  0  0  0  0  0  0  0  0
    1.7931  -30.2085   -9.5535 C   0  0  0  0  0  0  0  0  0  0  0  0
    2.8553  -29.3341   -9.6040 C   0  0  0  0  0  0  0  0  0  0  0  0
    3.6424  -26.0472  -12.5217 C   0  0  0  0  0  0  0  0  0  0  0  0
    2.9072  -25.0011  -12.9917 N   0  0  0  0  0  0  0  0  0  0  0  0
    2.6094  -25.2406  -14.2875 C   0  0  0  0  0  0  0  0  0  0  0  0
    1.8342  -24.3381  -15.1177 C   0  0  0  0  0  0  0  0  0  0  0  0
    1.3768  -23.1705  -14.5480 C   0  0  0  0  0  0  0  0  0  0  0  0
    0.6296  -22.2721  -15.2999 C   0  0  0  0  0  0  0  0  0  0  0  0
    0.3304  -22.5285  -16.6286 C   0  0  0  0  0  0  0  0  0  0  0  0
    0.8012  -23.7086  -17.1785 C   0  0  0  0  0  0  0  0  0  0  0  0
    1.5452  -24.6073  -16.4368 C   0  0  0  0  0  0  0  0  0  0  0  0
    3.1831  -26.4596  -14.5914 C   0  0  0  0  0  0  0  0  0  0  0  0
    3.8217  -26.9552  -13.4948 N   0  0  0  0  0  0  0  0  0  0  0  0
    4.9646  -24.0518   -9.9930 C   0  0  0  0  0  0  0  0  0  0  0  0
  1  2  1  0
  2  3  1  0
  3  4  1  0
  4  5  2  0
  5  6  1  0
  6  7  1  0
  7  8  1  0
  8  9  1  0
  8 10  1  0
  6 11  2  0
 11 12  1  0
 11 13  1  0
 13 14  1  0
 14 15  1  1
 15 16  1  0
 16 17  2  0
 17 18  1  0
 18 19  2  0
 19 20  1  0
 20 21  1  0
 20 22  2  0
 19 23  1  0
 23 24  2  0
 14 25  1  0
 25 26  2  0
 26 27  1  0
 27 28  1  0
 28 29  2  0
 29 30  1  0
 30 31  2  0
 31 32  1  0
 32 33  2  0
 27 34  2  0
 34 35  1  0
 13 36  2  0
 36  4  1  0
 24 16  1  0
 35 25  1  0
 33 28  1  0
M  CHG  1  22   1
M  END
>  <shape_align_shape_tanimoto>  (2) 
0.26347898047486679

>  <shape_align_color_tanimoto>  (2) 
0.049417038668223535

>  <metric>  (2) 
color

>  <metric_score>  (2) 
0.049

>  <template_pid>  (2) 
4YT6

>  <template_shape_score>  (2) 
0.263

>  <template_color_score>  (2) 
0.049

>  <template_combo_score>  (2) 
0.156

$$$$
4YT6_combo_pose
     RDKit          3D

 36 39  0  0  0  0  0  0  0  0999 V2000
    0.2005  -21.6088   -8.4143 C   0  0  0  0  0  0  0  0  0  0  0  0
    0.0454  -22.6263   -7.3301 C   0  0  0  0  0  0  0  0  0  0  0  0
   -0.2150  -23.9168   -7.7843 O   0  0  0  0  0  0  0  0  0  0  0  0
    0.5836  -24.6840   -8.6056 C   0  0  0  0  0  0  0  0  0  0  0  0
    0.1584  -25.9424   -8.9508 C   0  0  0  0  0  0  0  0  0  0  0  0
    0.8986  -26.7926   -9.7769 C   0  0  0  0  0  0  0  0  0  0  0  0
    0.3649  -28.0099  -10.0402 O   0  0  0  0  0  0  0  0  0  0  0  0
    0.7732  -29.0867  -10.7817 C   0  0  0  0  0  0  0  0  0  0  0  0
    0.9430  -30.3386   -9.9218 C   0  0  0  0  0  0  0  0  0  0  0  0
   -0.2223  -29.4481  -11.8818 C   0  0  0  0  0  0  0  0  0  0  0  0
    2.0940  -26.2957  -10.2335 C   0  0  0  0  0  0  0  0  0  0  0  0
    2.8804  -27.0521  -11.0260 F   0  0  0  0  0  0  0  0  0  0  0  0
    2.5718  -25.0310   -9.9162 C   0  0  0  0  0  0  0  0  0  0  0  0
    3.8323  -24.4736  -10.3985 C   0  0  1  0  0  0  0  0  0  0  0  0
    4.2523  -25.0883  -11.6435 N   0  0  0  0  0  0  0  0  0  0  0  0
    3.4690  -25.1215  -12.8260 C   0  0  0  0  0  0  0  0  0  0  0  0
    3.9705  -25.7096  -13.9959 C   0  0  0  0  0  0  0  0  0  0  0  0
    3.2406  -25.7690  -15.1589 C   0  0  0  0  0  0  0  0  0  0  0  0
    1.9709  -25.2520  -15.2398 C   0  0  0  0  0  0  0  0  0  0  0  0
    1.1894  -25.3093  -16.4665 C   0  0  0  0  0  0  0  0  0  0  0  0
    0.2506  -24.2560  -16.6872 N   0  0  0  0  0  0  0  0  0  0  0  0
    1.3199  -26.2649  -17.3390 N   0  0  0  0  0  0  0  0  0  0  0  0
    1.4528  -24.6683  -14.1051 C   0  0  0  0  0  0  0  0  0  0  0  0
    2.1951  -24.6088  -12.9246 C   0  0  0  0  0  0  0  0  0  0  0  0
    3.8850  -23.0137  -10.5634 C   0  0  0  0  0  0  0  0  0  0  0  0
    3.5397  -22.2132  -11.5852 N   0  0  0  0  0  0  0  0  0  0  0  0
    3.7527  -20.9147  -11.3064 C   0  0  0  0  0  0  0  0  0  0  0  0
    3.5065  -19.7471  -12.1524 C   0  0  0  0  0  0  0  0  0  0  0  0
    3.7886  -18.4747  -11.6956 C   0  0  0  0  0  0  0  0  0  0  0  0
    3.5382  -17.3844  -12.5372 C   0  0  0  0  0  0  0  0  0  0  0  0
    3.0113  -17.5844  -13.8176 C   0  0  0  0  0  0  0  0  0  0  0  0
    2.7271  -18.8726  -14.2765 C   0  0  0  0  0  0  0  0  0  0  0  0
    2.9865  -19.9344  -13.4180 C   0  0  0  0  0  0  0  0  0  0  0  0
    4.2656  -20.8944  -10.0263 C   0  0  0  0  0  0  0  0  0  0  0  0
    4.3334  -22.1680   -9.6065 N   0  0  0  0  0  0  0  0  0  0  0  0
    1.7878  -24.2382   -9.0915 C   0  0  0  0  0  0  0  0  0  0  0  0
  1  2  1  0
  2  3  1  0
  3  4  1  0
  4  5  2  0
  5  6  1  0
  6  7  1  0
  7  8  1  0
  8  9  1  0
  8 10  1  0
  6 11  2  0
 11 12  1  0
 11 13  1  0
 13 14  1  0
 14 15  1  6
 15 16  1  0
 16 17  2  0
 17 18  1  0
 18 19  2  0
 19 20  1  0
 20 21  1  0
 20 22  2  0
 19 23  1  0
 23 24  2  0
 14 25  1  0
 25 26  2  0
 26 27  1  0
 27 28  1  0
 28 29  2  0
 29 30  1  0
 30 31  2  0
 31 32  1  0
 32 33  2  0
 27 34  2  0
 34 35  1  0
 13 36  2  0
 36  4  1  0
 24 16  1  0
 35 25  1  0
 33 28  1  0
M  CHG  1  22   1
M  END
>  <shape_align_shape_tanimoto>  (3) 
0.31691703685442563

>  <shape_align_color_tanimoto>  (3) 
0.023617513747929565

>  <metric>  (3) 
combo

>  <metric_score>  (3) 
0.170

>  <template_pid>  (3) 
4YT6

>  <template_shape_score>  (3) 
0.317

>  <template_color_score>  (3) 
0.024

>  <template_combo_score>  (3) 
0.170

$$$$
