3CZV_shape_pose
     RDKit          3D

 13 13  0  0  0  0  0  0  0  0999 V2000
   -5.6659    4.5691   12.0980 C   0  0  0  0  0  0  0  0  0  0  0  0
   -4.3272    4.0183   11.7453 C   0  0  0  0  0  0  0  0  0  0  0  0
   -4.1679    2.8500   11.3068 O   0  0  0  0  0  0  0  0  0  0  0  0
   -3.2082    4.8344   11.9095 N   0  0  0  0  0  0  0  0  0  0  0  0
   -1.9298    4.2779   11.5617 C   0  0  0  0  0  0  0  0  0  0  0  0
   -1.5636    3.0742   11.0866 N   0  0  0  0  0  0  0  0  0  0  0  0
   -0.3236    2.8779   10.8727 N   0  0  0  0  0  0  0  0  0  0  0  0
    0.5960    3.6847   11.0567 C   0  0  0  0  0  0  0  0  0  0  0  0
    2.3074    3.6889   10.8640 S   0  0  0  0  0  0  0  0  0  0  0  0
    2.7244    4.2109    9.3062 N   0  0  0  0  0  0  0  0  0  0  0  0
    2.8733    4.7294   11.8225 O   0  0  0  0  0  0  0  0  0  0  0  0
    2.9425    2.4016   11.2367 O   0  0  0  0  0  0  0  0  0  0  0  0
   -0.3421    5.1692   11.6989 S   0  0  0  0  0  0  0  0  0  0  0  0
  1  2  1  0
  2  3  2  0
  2  4  1  0
  4  5  1  0
  5  6  2  0
  6  7  1  0
  7  8  2  0
  8  9  1  0
  9 10  1  0
  9 11  2  0
  9 12  2  0
  8 13  1  0
 13  5  1  0
M  END
>  <shape_align_shape_tanimoto>  (1) 
0.78678402413716131

>  <shape_align_color_tanimoto>  (1) 
0.10932016892882543

>  <metric>  (1) 
shape

>  <metric_score>  (1) 
0.787

>  <template_pid>  (1) 
3CZV

>  <template_shape_score>  (1) 
0.787

>  <template_color_score>  (1) 
0.109

>  <template_combo_score>  (1) 
0.448

$$$$
3CZV_color_pose
     RDKit          3D

 13 13  0  0  0  0  0  0  0  0999 V2000
   -5.8835    3.1814   12.1821 C   0  0  0  0  0  0  0  0  0  0  0  0
   -4.4732    3.5830   12.2213 C   0  0  0  0  0  0  0  0  0  0  0  0
   -3.7902    3.6415   13.2881 O   0  0  0  0  0  0  0  0  0  0  0  0
   -3.7800    3.9384   11.0231 N   0  0  0  0  0  0  0  0  0  0  0  0
   -2.3649    4.3349   11.1118 C   0  0  0  0  0  0  0  0  0  0  0  0
   -1.6217    5.1963   11.2478 N   0  0  0  0  0  0  0  0  0  0  0  0
   -0.3304    5.1168   11.2683 N   0  0  0  0  0  0  0  0  0  0  0  0
    0.2650    4.0844   11.1416 C   0  0  0  0  0  0  0  0  0  0  0  0
    1.9657    3.5380   11.1082 S   0  0  0  0  0  0  0  0  0  0  0  0
    2.5453    3.5843    9.4909 N   0  0  0  0  0  0  0  0  0  0  0  0
    2.6761    4.5703   11.9267 O   0  0  0  0  0  0  0  0  0  0  0  0
    2.0880    2.1700   11.6750 O   0  0  0  0  0  0  0  0  0  0  0  0
   -1.1156    2.8794   10.9430 S   0  0  0  0  0  0  0  0  0  0  0  0
  1  2  1  0
  2  3  2  0
  2  4  1  0
  4  5  1  0
  5  6  2  0
  6  7  1  0
  7  8  2  0
  8  9  1  0
  9 10  1  0
  9 11  2  0
  9 12  2  0
  8 13  1  0
 13  5  1  0
M  END
>  <shape_align_shape_tanimoto>  (2) 
0.75349614091608308

>  <shape_align_color_tanimoto>  (2) 
0.15709024974140817

>  <metric>  (2) 
color

>  <metric_score>  (2) 
0.157

>  <template_pid>  (2) 
3CZV

>  <template_shape_score>  (2) 
0.753

>  <template_color_score>  (2) 
0.157

>  <template_combo_score>  (2) 
0.455

$$$$
3CZV_combo_pose
     RDKit          3D

 13 13  0  0  0  0  0  0  0  0999 V2000
   -5.6709    3.4711   12.4028 C   0  0  0  0  0  0  0  0  0  0  0  0
   -4.2459    3.8904   12.2314 C   0  0  0  0  0  0  0  0  0  0  0  0
   -3.5875    4.4150   13.1700 O   0  0  0  0  0  0  0  0  0  0  0  0
   -3.5707    3.7108   10.9867 N   0  0  0  0  0  0  0  0  0  0  0  0
   -2.2042    4.1470   10.9272 C   0  0  0  0  0  0  0  0  0  0  0  0
   -1.5200    5.1254   10.6640 N   0  0  0  0  0  0  0  0  0  0  0  0
   -0.2350    5.1424   10.7288 N   0  0  0  0  0  0  0  0  0  0  0  0
    0.4785    4.2368   11.0458 C   0  0  0  0  0  0  0  0  0  0  0  0
    2.1182    3.7279   11.2938 S   0  0  0  0  0  0  0  0  0  0  0  0
    2.7057    3.0992    9.7843 N   0  0  0  0  0  0  0  0  0  0  0  0
    3.0090    4.8350   11.7171 O   0  0  0  0  0  0  0  0  0  0  0  0
    2.2486    2.6399   12.3311 O   0  0  0  0  0  0  0  0  0  0  0  0
   -0.8430    2.9106   11.3810 S   0  0  0  0  0  0  0  0  0  0  0  0
  1  2  1  0
  2  3  2  0
  2  4  1  0
  4  5  1  0
  5  6  2  0
  6  7  1  0
  7  8  2  0
  8  9  1  0
  9 10  1  0
  9 11  2  0
  9 12  2  0
  8 13  1  0
 13  5  1  0
M  END
>  <shape_align_shape_tanimoto>  (3) 
0.76358999928242877

>  <shape_align_color_tanimoto>  (3) 
0.15293653077114117

>  <metric>  (3) 
combo

>  <metric_score>  (3) 
0.458

>  <template_pid>  (3) 
3CZV

>  <template_shape_score>  (3) 
0.764

>  <template_color_score>  (3) 
0.153

>  <template_combo_score>  (3) 
0.458

$$$$
