6QR0_shape_pose
     RDKit          3D

 24 27  0  0  0  0  0  0  0  0999 V2000
   39.8535   27.2148   24.7451 N   0  0  0  0  0  0  0  0  0  0  0  0
   39.8715   26.3388   25.5049 C   0  0  0  0  0  0  0  0  0  0  0  0
   39.9181   25.2590   26.4489 C   0  0  0  0  0  0  0  0  0  0  0  0
   40.9782   24.9764   27.2697 C   0  0  0  0  0  0  0  0  0  0  0  0
   42.2291   25.7397   27.3054 C   0  0  0  0  0  0  0  0  0  0  0  0
   42.1344   27.1169   27.3143 C   0  0  0  0  0  0  0  0  0  0  0  0
   43.2810   27.8862   27.3476 C   0  0  0  0  0  0  0  0  0  0  0  0
   44.4862   27.2246   27.3707 C   0  0  0  0  0  0  0  0  0  0  0  0
   45.7650   27.7416   27.4051 C   0  0  0  0  0  0  0  0  0  0  0  0
   46.6004   26.6488   27.4160 C   0  0  0  0  0  0  0  0  0  0  0  0
   45.8864   25.5030   27.3899 N   0  0  0  0  0  0  0  0  0  0  0  0
   46.5128   24.1995   27.3941 C   0  0  0  0  0  0  0  0  0  0  0  0
   46.6815   23.7671   28.8184 C   0  0  0  0  0  0  0  0  0  0  0  0
   47.8332   24.0769   29.5247 C   0  0  0  0  0  0  0  0  0  0  0  0
   47.9762   23.6677   30.8499 C   0  0  0  0  0  0  0  0  0  0  0  0
   46.9925   22.9682   31.4493 N   0  0  0  0  0  0  0  0  0  0  0  0
   45.8731   22.6641   30.7715 C   0  0  0  0  0  0  0  0  0  0  0  0
   45.6792   23.0493   29.4433 C   0  0  0  0  0  0  0  0  0  0  0  0
   44.5828   25.8365   27.3618 C   0  0  0  0  0  0  0  0  0  0  0  0
   43.4543   25.0799   27.3290 C   0  0  0  0  0  0  0  0  0  0  0  0
   40.6253   23.8977   27.9939 N   0  0  0  0  0  0  0  0  0  0  0  0
   39.3993   23.5176   27.6459 N   0  0  0  0  0  0  0  0  0  0  0  0
   38.9181   24.3398   26.6831 C   0  0  0  0  0  0  0  0  0  0  0  0
   37.6529   24.2887   26.0339 N   0  0  0  0  0  0  0  0  0  0  0  0
  1  2  3  0
  2  3  1  0
  3  4  1  0
  4  5  1  0
  5  6  2  0
  6  7  1  0
  7  8  2  0
  8  9  1  0
  9 10  2  0
 10 11  1  0
 11 12  1  0
 12 13  1  0
 13 14  2  0
 14 15  1  0
 15 16  2  0
 16 17  1  0
 17 18  2  0
 11 19  1  0
 19 20  2  0
  4 21  2  0
 21 22  1  0
 22 23  1  0
 23 24  1  0
 23  3  2  0
 20  5  1  0
 19  8  1  0
 18 13  1  0
M  END
>  <shape_align_shape_tanimoto>  (1) 
0.76403272939850686

>  <shape_align_color_tanimoto>  (1) 
0.039861144155215557

>  <metric>  (1) 
shape

>  <metric_score>  (1) 
0.764

>  <template_pid>  (1) 
6QR0

>  <template_shape_score>  (1) 
0.764

>  <template_color_score>  (1) 
0.040

>  <template_combo_score>  (1) 
0.402

$$$$
6QR0_color_pose
     RDKit          3D

 24 27  0  0  0  0  0  0  0  0999 V2000
   45.7132   23.5520   27.7222 N   0  0  0  0  0  0  0  0  0  0  0  0
   45.5142   24.6823   27.6380 C   0  0  0  0  0  0  0  0  0  0  0  0
   45.2871   26.1084   27.5323 C   0  0  0  0  0  0  0  0  0  0  0  0
   44.0508   26.7312   27.4159 C   0  0  0  0  0  0  0  0  0  0  0  0
   42.7904   25.9898   27.3856 C   0  0  0  0  0  0  0  0  0  0  0  0
   42.6392   24.9789   28.3183 C   0  0  0  0  0  0  0  0  0  0  0  0
   41.4956   24.2039   28.3947 C   0  0  0  0  0  0  0  0  0  0  0  0
   40.4907   24.4817   27.4880 C   0  0  0  0  0  0  0  0  0  0  0  0
   39.2638   23.8952   27.3211 C   0  0  0  0  0  0  0  0  0  0  0  0
   38.6693   24.5664   26.2699 C   0  0  0  0  0  0  0  0  0  0  0  0
   39.5148   25.5209   25.8260 N   0  0  0  0  0  0  0  0  0  0  0  0
   39.1628   26.3974   24.7171 C   0  0  0  0  0  0  0  0  0  0  0  0
   39.5769   25.8372   23.4027 C   0  0  0  0  0  0  0  0  0  0  0  0
   40.8345   26.1189   22.8712 C   0  0  0  0  0  0  0  0  0  0  0  0
   41.1752   25.5725   21.6406 C   0  0  0  0  0  0  0  0  0  0  0  0
   40.3297   24.7819   20.9489 N   0  0  0  0  0  0  0  0  0  0  0  0
   39.1133   24.4944   21.4369 C   0  0  0  0  0  0  0  0  0  0  0  0
   38.7232   25.0197   22.6709 C   0  0  0  0  0  0  0  0  0  0  0  0
   40.6442   25.4912   26.5581 C   0  0  0  0  0  0  0  0  0  0  0  0
   41.7843   26.2639   26.4819 C   0  0  0  0  0  0  0  0  0  0  0  0
   44.2604   28.0585   27.3436 N   0  0  0  0  0  0  0  0  0  0  0  0
   45.5770   28.3066   27.4090 N   0  0  0  0  0  0  0  0  0  0  0  0
   46.2299   27.1165   27.5258 C   0  0  0  0  0  0  0  0  0  0  0  0
   47.6329   26.8940   27.6268 N   0  0  0  0  0  0  0  0  0  0  0  0
  1  2  3  0
  2  3  1  0
  3  4  1  0
  4  5  1  0
  5  6  2  0
  6  7  1  0
  7  8  2  0
  8  9  1  0
  9 10  2  0
 10 11  1  0
 11 12  1  0
 12 13  1  0
 13 14  2  0
 14 15  1  0
 15 16  2  0
 16 17  1  0
 17 18  2  0
 11 19  1  0
 19 20  2  0
  4 21  2  0
 21 22  1  0
 22 23  1  0
 23 24  1  0
 23  3  2  0
 20  5  1  0
 19  8  1  0
 18 13  1  0
M  END
>  <shape_align_shape_tanimoto>  (2) 
0.54486265897725317

>  <shape_align_color_tanimoto>  (2) 
0.12812618728212086

>  <metric>  (2) 
color

>  <metric_score>  (2) 
0.128

>  <template_pid>  (2) 
6QR0

>  <template_shape_score>  (2) 
0.545

>  <template_color_score>  (2) 
0.128

>  <template_combo_score>  (2) 
0.336

$$$$
6QR0_combo_pose
     RDKit          3D

 24 27  0  0  0  0  0  0  0  0999 V2000
   41.7089   23.1957   29.0763 N   0  0  0  0  0  0  0  0  0  0  0  0
   41.1916   23.8433   28.2705 C   0  0  0  0  0  0  0  0  0  0  0  0
   40.5657   24.6494   27.2878 C   0  0  0  0  0  0  0  0  0  0  0  0
   41.1042   25.7801   26.6768 C   0  0  0  0  0  0  0  0  0  0  0  0
   42.4056   26.3507   26.9264 C   0  0  0  0  0  0  0  0  0  0  0  0
   42.4656   27.7375   27.0766 C   0  0  0  0  0  0  0  0  0  0  0  0
   43.6714   28.3766   27.3191 C   0  0  0  0  0  0  0  0  0  0  0  0
   44.8013   27.5927   27.4054 C   0  0  0  0  0  0  0  0  0  0  0  0
   46.1110   27.9672   27.6362 C   0  0  0  0  0  0  0  0  0  0  0  0
   46.8303   26.7869   27.6216 C   0  0  0  0  0  0  0  0  0  0  0  0
   46.0037   25.7417   27.3934 N   0  0  0  0  0  0  0  0  0  0  0  0
   46.4856   24.3772   27.3251 C   0  0  0  0  0  0  0  0  0  0  0  0
   46.4349   23.8012   28.6913 C   0  0  0  0  0  0  0  0  0  0  0  0
   47.5083   23.9012   29.5499 C   0  0  0  0  0  0  0  0  0  0  0  0
   47.5055   23.3849   30.8184 C   0  0  0  0  0  0  0  0  0  0  0  0
   46.3854   22.7459   31.2393 N   0  0  0  0  0  0  0  0  0  0  0  0
   45.3223   22.6210   30.4524 C   0  0  0  0  0  0  0  0  0  0  0  0
   45.3187   23.1446   29.1594 C   0  0  0  0  0  0  0  0  0  0  0  0
   44.7533   26.2211   27.2584 C   0  0  0  0  0  0  0  0  0  0  0  0
   43.5588   25.5899   27.0184 C   0  0  0  0  0  0  0  0  0  0  0  0
   40.1713   26.2278   25.8140 N   0  0  0  0  0  0  0  0  0  0  0  0
   39.0860   25.4547   25.8432 N   0  0  0  0  0  0  0  0  0  0  0  0
   39.3195   24.4855   26.7435 C   0  0  0  0  0  0  0  0  0  0  0  0
   38.4134   23.4387   27.0883 N   0  0  0  0  0  0  0  0  0  0  0  0
  1  2  3  0
  2  3  1  0
  3  4  1  0
  4  5  1  0
  5  6  2  0
  6  7  1  0
  7  8  2  0
  8  9  1  0
  9 10  2  0
 10 11  1  0
 11 12  1  0
 12 13  1  0
 13 14  2  0
 14 15  1  0
 15 16  2  0
 16 17  1  0
 17 18  2  0
 11 19  1  0
 19 20  2  0
  4 21  2  0
 21 22  1  0
 22 23  1  0
 23 24  1  0
 23  3  2  0
 20  5  1  0
 19  8  1  0
 18 13  1  0
M  END
>  <shape_align_shape_tanimoto>  (3) 
0.75412509519619975

>  <shape_align_color_tanimoto>  (3) 
0.058670814792017606

>  <metric>  (3) 
combo

>  <metric_score>  (3) 
0.406

>  <template_pid>  (3) 
6QR0

>  <template_shape_score>  (3) 
0.754

>  <template_color_score>  (3) 
0.059

>  <template_combo_score>  (3) 
0.406

$$$$
