1HPX_shape_pose
     RDKit          3D

 46 49  0  0  0  0  0  0  0  0999 V2000
   71.4248   58.4725   12.3758 C   0  0  0  0  0  0  0  0  0  0  0  0
   70.6172   57.5514   13.7402 S   0  0  0  0  0  0  0  0  0  0  0  0
   70.9952   58.4154   15.2511 C   0  0  0  0  0  0  0  0  0  0  0  0
   70.4584   57.8628   16.5148 C   0  0  2  0  0  0  0  0  0  0  0  0
   70.9224   58.7637   17.5744 N   0  0  0  0  0  0  0  0  0  0  0  0
   70.0693   58.9984   18.6711 C   0  0  0  0  0  0  0  0  0  0  0  0
   68.9682   58.3760   18.6786 O   0  0  0  0  0  0  0  0  0  0  0  0
   70.3353   59.8982   19.8052 C   0  0  0  0  0  0  0  0  0  0  0  0
   71.4941   60.5791   19.7969 O   0  0  0  0  0  0  0  0  0  0  0  0
   72.8210   60.4517   19.8023 C   0  0  0  0  0  0  0  0  0  0  0  0
   73.5725   59.2990   19.8284 C   0  0  0  0  0  0  0  0  0  0  0  0
   74.9479   59.2802   19.8304 C   0  0  0  0  0  0  0  0  0  0  0  0
   75.6066   60.4862   19.8044 C   0  0  0  0  0  0  0  0  0  0  0  0
   74.9289   61.6780   19.7784 C   0  0  0  0  0  0  0  0  0  0  0  0
   75.6330   62.8848   19.7515 C   0  0  0  0  0  0  0  0  0  0  0  0
   74.9507   64.0580   19.7248 N   0  0  0  0  0  0  0  0  0  0  0  0
   73.5898   64.0558   19.7237 C   0  0  0  0  0  0  0  0  0  0  0  0
   72.8951   62.8623   19.7500 C   0  0  0  0  0  0  0  0  0  0  0  0
   73.5637   61.6472   19.7778 C   0  0  0  0  0  0  0  0  0  0  0  0
   70.7624   56.4331   16.7865 C   0  0  0  0  0  0  0  0  0  0  0  0
   71.4989   56.1770   17.7585 O   0  0  0  0  0  0  0  0  0  0  0  0
   70.1809   55.4867   15.9187 N   0  0  0  0  0  0  0  0  0  0  0  0
   70.3054   54.0517   15.9718 C   0  0  1  0  0  0  0  0  0  0  0  0
   68.9896   53.3955   16.3377 C   0  0  0  0  0  0  0  0  0  0  0  0
   67.8923   53.6975   15.3928 C   0  0  0  0  0  0  0  0  0  0  0  0
   67.5619   52.9374   14.3020 C   0  0  0  0  0  0  0  0  0  0  0  0
   66.5029   53.3434   13.4806 C   0  0  0  0  0  0  0  0  0  0  0  0
   65.7980   54.4785   13.7480 C   0  0  0  0  0  0  0  0  0  0  0  0
   66.1192   55.2376   14.8275 C   0  0  0  0  0  0  0  0  0  0  0  0
   67.1542   54.8452   15.6343 C   0  0  0  0  0  0  0  0  0  0  0  0
   70.9869   53.4201   14.8134 C   0  0  2  0  0  0  0  0  0  0  0  0
   71.0298   52.0256   14.8540 O   0  0  0  0  0  0  0  0  0  0  0  0
   72.4384   53.8416   14.7373 C   0  0  0  0  0  0  0  0  0  0  0  0
   72.6289   55.0521   15.1152 O   0  0  0  0  0  0  0  0  0  0  0  0
   73.4697   52.9963   14.3013 N   0  0  0  0  0  0  0  0  0  0  0  0
   73.5023   51.6747   13.7122 C   0  0  0  0  0  0  0  0  0  0  0  0
   74.5940   52.0988   12.2589 S   0  0  0  0  0  0  0  0  0  0  0  0
   75.3184   53.6470   13.0053 C   0  0  0  0  0  0  0  0  0  0  0  0
   74.8865   53.3466   14.4000 C   0  0  1  0  0  0  0  0  0  0  0  0
   75.2881   54.1644   15.5037 C   0  0  0  0  0  0  0  0  0  0  0  0
   76.2511   55.0003   15.5190 O   0  0  0  0  0  0  0  0  0  0  0  0
   74.5638   54.0568   16.7338 N   0  0  0  0  0  0  0  0  0  0  0  0
   74.8516   54.8059   17.9096 C   0  0  0  0  0  0  0  0  0  0  0  0
   76.2594   54.5604   18.4502 C   0  0  0  0  0  0  0  0  0  0  0  0
   73.9215   54.4049   19.0290 C   0  0  0  0  0  0  0  0  0  0  0  0
   74.7437   56.2950   17.7153 C   0  0  0  0  0  0  0  0  0  0  0  0
  1  2  1  0
  2  3  1  0
  4  3  1  6
  4  5  1  0
  5  6  1  0
  6  7  2  0
  6  8  1  0
  8  9  1  0
  9 10  1  0
 10 11  2  0
 11 12  1  0
 12 13  2  0
 13 14  1  0
 14 15  2  0
 15 16  1  0
 16 17  2  0
 17 18  1  0
 18 19  2  0
  4 20  1  0
 20 21  2  0
 20 22  1  0
 22 23  1  0
 23 24  1  6
 24 25  1  0
 25 26  2  0
 26 27  1  0
 27 28  2  0
 28 29  1  0
 29 30  2  0
 23 31  1  0
 31 32  1  1
 31 33  1  0
 33 34  2  0
 33 35  1  0
 35 36  1  0
 36 37  1  0
 37 38  1  0
 38 39  1  0
 39 40  1  1
 40 41  2  0
 40 42  1  0
 42 43  1  0
 43 44  1  0
 43 45  1  0
 43 46  1  0
 19 10  1  0
 30 25  1  0
 39 35  1  0
 19 14  1  0
M  END
>  <shape_align_shape_tanimoto>  (1) 
0.5549261127966042

>  <shape_align_color_tanimoto>  (1) 
0.019812810818777334

>  <metric>  (1) 
shape

>  <metric_score>  (1) 
0.555

>  <template_pid>  (1) 
1HPX

>  <template_shape_score>  (1) 
0.555

>  <template_color_score>  (1) 
0.020

>  <template_combo_score>  (1) 
0.287

$$$$
1HPX_color_pose
     RDKit          3D

 46 49  0  0  0  0  0  0  0  0999 V2000
   68.7085   62.2349   17.6340 C   0  0  0  0  0  0  0  0  0  0  0  0
   67.8782   61.6558   16.1431 S   0  0  0  0  0  0  0  0  0  0  0  0
   69.0233   60.7701   15.1093 C   0  0  0  0  0  0  0  0  0  0  0  0
   69.4965   59.4303   15.6976 C   0  0  2  0  0  0  0  0  0  0  0  0
   70.1584   59.6388   16.9604 N   0  0  0  0  0  0  0  0  0  0  0  0
   69.4942   59.2159   18.1307 C   0  0  0  0  0  0  0  0  0  0  0  0
   68.3444   58.6755   17.9630 O   0  0  0  0  0  0  0  0  0  0  0  0
   69.9629   59.3260   19.5153 C   0  0  0  0  0  0  0  0  0  0  0  0
   71.1995   59.8988   19.7132 O   0  0  0  0  0  0  0  0  0  0  0  0
   72.4366   59.5128   19.3233 C   0  0  0  0  0  0  0  0  0  0  0  0
   72.7667   58.3858   18.6102 C   0  0  0  0  0  0  0  0  0  0  0  0
   74.0552   58.0557   18.2513 C   0  0  0  0  0  0  0  0  0  0  0  0
   75.0782   58.8989   18.6249 C   0  0  0  0  0  0  0  0  0  0  0  0
   74.8064   60.0370   19.3373 C   0  0  0  0  0  0  0  0  0  0  0  0
   75.7922   60.9063   19.7301 C   0  0  0  0  0  0  0  0  0  0  0  0
   75.5359   62.0416   20.4379 N   0  0  0  0  0  0  0  0  0  0  0  0
   74.2905   62.3550   20.7813 C   0  0  0  0  0  0  0  0  0  0  0  0
   73.2721   61.5034   20.4031 C   0  0  0  0  0  0  0  0  0  0  0  0
   73.5112   60.3404   19.6810 C   0  0  0  0  0  0  0  0  0  0  0  0
   70.4670   58.9235   14.7078 C   0  0  0  0  0  0  0  0  0  0  0  0
   69.9994   58.6749   13.5433 O   0  0  0  0  0  0  0  0  0  0  0  0
   71.8367   58.6977   14.9244 N   0  0  0  0  0  0  0  0  0  0  0  0
   72.6478   58.2067   13.8002 C   0  0  1  0  0  0  0  0  0  0  0  0
   73.5026   59.3935   13.4215 C   0  0  0  0  0  0  0  0  0  0  0  0
   74.4244   59.2060   12.3111 C   0  0  0  0  0  0  0  0  0  0  0  0
   75.7460   58.8390   12.4008 C   0  0  0  0  0  0  0  0  0  0  0  0
   76.5746   58.6749   11.3134 C   0  0  0  0  0  0  0  0  0  0  0  0
   76.0860   58.8823   10.0432 C   0  0  0  0  0  0  0  0  0  0  0  0
   74.7627   59.2515    9.9272 C   0  0  0  0  0  0  0  0  0  0  0  0
   73.9367   59.4145   11.0178 C   0  0  0  0  0  0  0  0  0  0  0  0
   73.5132   57.0372   14.1573 C   0  0  2  0  0  0  0  0  0  0  0  0
   74.2223   56.6842   13.0158 O   0  0  0  0  0  0  0  0  0  0  0  0
   72.8061   55.9194   14.8092 C   0  0  0  0  0  0  0  0  0  0  0  0
   72.3577   56.1966   15.9879 O   0  0  0  0  0  0  0  0  0  0  0  0
   72.5999   54.6280   14.2598 N   0  0  0  0  0  0  0  0  0  0  0  0
   72.9834   54.1233   12.9187 C   0  0  0  0  0  0  0  0  0  0  0  0
   74.0876   52.7655   13.5120 S   0  0  0  0  0  0  0  0  0  0  0  0
   73.2824   52.5645   15.1681 C   0  0  0  0  0  0  0  0  0  0  0  0
   72.0436   53.4312   14.8623 C   0  0  1  0  0  0  0  0  0  0  0  0
   71.0812   53.5026   15.9126 C   0  0  0  0  0  0  0  0  0  0  0  0
   71.0922   52.5445   16.7900 O   0  0  0  0  0  0  0  0  0  0  0  0
   70.0823   54.4765   16.1558 N   0  0  0  0  0  0  0  0  0  0  0  0
   69.2476   54.2638   17.3276 C   0  0  0  0  0  0  0  0  0  0  0  0
   68.2604   55.4020   17.4266 C   0  0  0  0  0  0  0  0  0  0  0  0
   68.4192   52.9859   17.1272 C   0  0  0  0  0  0  0  0  0  0  0  0
   70.0256   54.2042   18.5967 C   0  0  0  0  0  0  0  0  0  0  0  0
  1  2  1  0
  2  3  1  0
  4  3  1  6
  4  5  1  0
  5  6  1  0
  6  7  2  0
  6  8  1  0
  8  9  1  0
  9 10  1  0
 10 11  2  0
 11 12  1  0
 12 13  2  0
 13 14  1  0
 14 15  2  0
 15 16  1  0
 16 17  2  0
 17 18  1  0
 18 19  2  0
  4 20  1  0
 20 21  2  0
 20 22  1  0
 22 23  1  0
 23 24  1  1
 24 25  1  0
 25 26  2  0
 26 27  1  0
 27 28  2  0
 28 29  1  0
 29 30  2  0
 23 31  1  0
 31 32  1  6
 31 33  1  0
 33 34  2  0
 33 35  1  0
 35 36  1  0
 36 37  1  0
 37 38  1  0
 38 39  1  0
 39 40  1  1
 40 41  2  0
 40 42  1  0
 42 43  1  0
 43 44  1  0
 43 45  1  0
 43 46  1  0
 19 10  1  0
 30 25  1  0
 39 35  1  0
 19 14  1  0
M  END
>  <shape_align_shape_tanimoto>  (2) 
0.39743234988611553

>  <shape_align_color_tanimoto>  (2) 
0.082710798239389136

>  <metric>  (2) 
color

>  <metric_score>  (2) 
0.083

>  <template_pid>  (2) 
1HPX

>  <template_shape_score>  (2) 
0.397

>  <template_color_score>  (2) 
0.083

>  <template_combo_score>  (2) 
0.240

$$$$
1HPX_combo_pose
     RDKit          3D

 46 49  0  0  0  0  0  0  0  0999 V2000
   71.4248   58.4725   12.3758 C   0  0  0  0  0  0  0  0  0  0  0  0
   70.6172   57.5514   13.7402 S   0  0  0  0  0  0  0  0  0  0  0  0
   70.9952   58.4154   15.2511 C   0  0  0  0  0  0  0  0  0  0  0  0
   70.4584   57.8628   16.5148 C   0  0  2  0  0  0  0  0  0  0  0  0
   70.9224   58.7637   17.5744 N   0  0  0  0  0  0  0  0  0  0  0  0
   70.0693   58.9984   18.6711 C   0  0  0  0  0  0  0  0  0  0  0  0
   68.9682   58.3760   18.6786 O   0  0  0  0  0  0  0  0  0  0  0  0
   70.3353   59.8982   19.8052 C   0  0  0  0  0  0  0  0  0  0  0  0
   71.4941   60.5791   19.7969 O   0  0  0  0  0  0  0  0  0  0  0  0
   72.8210   60.4517   19.8023 C   0  0  0  0  0  0  0  0  0  0  0  0
   73.5725   59.2990   19.8284 C   0  0  0  0  0  0  0  0  0  0  0  0
   74.9479   59.2802   19.8304 C   0  0  0  0  0  0  0  0  0  0  0  0
   75.6066   60.4862   19.8044 C   0  0  0  0  0  0  0  0  0  0  0  0
   74.9289   61.6780   19.7784 C   0  0  0  0  0  0  0  0  0  0  0  0
   75.6330   62.8848   19.7515 C   0  0  0  0  0  0  0  0  0  0  0  0
   74.9507   64.0580   19.7248 N   0  0  0  0  0  0  0  0  0  0  0  0
   73.5898   64.0558   19.7237 C   0  0  0  0  0  0  0  0  0  0  0  0
   72.8951   62.8623   19.7500 C   0  0  0  0  0  0  0  0  0  0  0  0
   73.5637   61.6472   19.7778 C   0  0  0  0  0  0  0  0  0  0  0  0
   70.7624   56.4331   16.7865 C   0  0  0  0  0  0  0  0  0  0  0  0
   71.4989   56.1770   17.7585 O   0  0  0  0  0  0  0  0  0  0  0  0
   70.1809   55.4867   15.9187 N   0  0  0  0  0  0  0  0  0  0  0  0
   70.3054   54.0517   15.9718 C   0  0  1  0  0  0  0  0  0  0  0  0
   68.9896   53.3955   16.3377 C   0  0  0  0  0  0  0  0  0  0  0  0
   67.8923   53.6975   15.3928 C   0  0  0  0  0  0  0  0  0  0  0  0
   67.5619   52.9374   14.3020 C   0  0  0  0  0  0  0  0  0  0  0  0
   66.5029   53.3434   13.4806 C   0  0  0  0  0  0  0  0  0  0  0  0
   65.7980   54.4785   13.7480 C   0  0  0  0  0  0  0  0  0  0  0  0
   66.1192   55.2376   14.8275 C   0  0  0  0  0  0  0  0  0  0  0  0
   67.1542   54.8452   15.6343 C   0  0  0  0  0  0  0  0  0  0  0  0
   70.9869   53.4201   14.8134 C   0  0  2  0  0  0  0  0  0  0  0  0
   71.0298   52.0256   14.8540 O   0  0  0  0  0  0  0  0  0  0  0  0
   72.4384   53.8416   14.7373 C   0  0  0  0  0  0  0  0  0  0  0  0
   72.6289   55.0521   15.1152 O   0  0  0  0  0  0  0  0  0  0  0  0
   73.4697   52.9963   14.3013 N   0  0  0  0  0  0  0  0  0  0  0  0
   73.5023   51.6747   13.7122 C   0  0  0  0  0  0  0  0  0  0  0  0
   74.5940   52.0988   12.2589 S   0  0  0  0  0  0  0  0  0  0  0  0
   75.3184   53.6470   13.0053 C   0  0  0  0  0  0  0  0  0  0  0  0
   74.8865   53.3466   14.4000 C   0  0  1  0  0  0  0  0  0  0  0  0
   75.2881   54.1644   15.5037 C   0  0  0  0  0  0  0  0  0  0  0  0
   76.2511   55.0003   15.5190 O   0  0  0  0  0  0  0  0  0  0  0  0
   74.5638   54.0568   16.7338 N   0  0  0  0  0  0  0  0  0  0  0  0
   74.8516   54.8059   17.9096 C   0  0  0  0  0  0  0  0  0  0  0  0
   76.2594   54.5604   18.4502 C   0  0  0  0  0  0  0  0  0  0  0  0
   73.9215   54.4049   19.0290 C   0  0  0  0  0  0  0  0  0  0  0  0
   74.7437   56.2950   17.7153 C   0  0  0  0  0  0  0  0  0  0  0  0
  1  2  1  0
  2  3  1  0
  4  3  1  6
  4  5  1  0
  5  6  1  0
  6  7  2  0
  6  8  1  0
  8  9  1  0
  9 10  1  0
 10 11  2  0
 11 12  1  0
 12 13  2  0
 13 14  1  0
 14 15  2  0
 15 16  1  0
 16 17  2  0
 17 18  1  0
 18 19  2  0
  4 20  1  0
 20 21  2  0
 20 22  1  0
 22 23  1  0
 23 24  1  6
 24 25  1  0
 25 26  2  0
 26 27  1  0
 27 28  2  0
 28 29  1  0
 29 30  2  0
 23 31  1  0
 31 32  1  1
 31 33  1  0
 33 34  2  0
 33 35  1  0
 35 36  1  0
 36 37  1  0
 37 38  1  0
 38 39  1  0
 39 40  1  1
 40 41  2  0
 40 42  1  0
 42 43  1  0
 43 44  1  0
 43 45  1  0
 43 46  1  0
 19 10  1  0
 30 25  1  0
 39 35  1  0
 19 14  1  0
M  END
>  <shape_align_shape_tanimoto>  (3) 
0.5549261127966042

>  <shape_align_color_tanimoto>  (3) 
0.019812810818777334

>  <metric>  (3) 
combo

>  <metric_score>  (3) 
0.287

>  <template_pid>  (3) 
1HPX

>  <template_shape_score>  (3) 
0.555

>  <template_color_score>  (3) 
0.020

>  <template_combo_score>  (3) 
0.287

$$$$
