4L2G_shape_pose
     RDKit          3D

 18 20  0  0  0  0  0  0  0  0999 V2000
   12.0516    6.9174   14.2604 O   0  0  0  0  0  0  0  0  0  0  0  0
   11.9612    6.5607   15.4460 C   0  0  0  0  0  0  0  0  0  0  0  0
   11.8469    7.4608   16.5026 C   0  0  0  0  0  0  0  0  0  0  0  0
   11.7472    7.0688   17.8091 C   0  0  0  0  0  0  0  0  0  0  0  0
   11.6269    7.9972   18.9280 C   0  0  0  0  0  0  0  0  0  0  0  0
   11.5340    7.4672   20.1981 C   0  0  0  0  0  0  0  0  0  0  0  0
   11.4183    8.3006   21.2943 C   0  0  0  0  0  0  0  0  0  0  0  0
   11.3901    9.6857   21.1756 C   0  0  0  0  0  0  0  0  0  0  0  0
   11.4858   10.1948   19.8791 C   0  0  0  0  0  0  0  0  0  0  0  0
   11.6012    9.3600   18.7873 C   0  0  0  0  0  0  0  0  0  0  0  0
   11.7606    5.7896   18.0671 O   0  0  0  0  0  0  0  0  0  0  0  0
   11.8652    4.8515   17.1367 C   0  0  0  0  0  0  0  0  0  0  0  0
   11.8675    3.5279   17.5409 C   0  0  0  0  0  0  0  0  0  0  0  0
   11.9784    2.5610   16.5463 C   0  0  0  0  0  0  0  0  0  0  0  0
   12.0817    2.9031   15.2139 C   0  0  0  0  0  0  0  0  0  0  0  0
   12.1883    1.9004   14.2806 F   0  0  0  0  0  0  0  0  0  0  0  0
   12.0784    4.2290   14.8212 C   0  0  0  0  0  0  0  0  0  0  0  0
   11.9680    5.2155   15.8033 C   0  0  0  0  0  0  0  0  0  0  0  0
  1  2  2  0
  2  3  1  0
  3  4  2  0
  4  5  1  0
  5  6  2  0
  6  7  1  0
  7  8  2  0
  8  9  1  0
  9 10  2  0
  4 11  1  0
 11 12  1  0
 12 13  2  0
 13 14  1  0
 14 15  2  0
 15 16  1  0
 15 17  1  0
 17 18  2  0
 18  2  1  0
 10  5  1  0
 18 12  1  0
M  END
>  <shape_align_shape_tanimoto>  (1) 
0.76554004696150579

>  <shape_align_color_tanimoto>  (1) 
0.084177047615966699

>  <metric>  (1) 
shape

>  <metric_score>  (1) 
0.766

>  <template_pid>  (1) 
4L2G

>  <template_shape_score>  (1) 
0.766

>  <template_color_score>  (1) 
0.084

>  <template_combo_score>  (1) 
0.425

$$$$
4L2G_color_pose
     RDKit          3D

 18 20  0  0  0  0  0  0  0  0999 V2000
   11.9195    3.2102   17.1722 O   0  0  0  0  0  0  0  0  0  0  0  0
   11.8978    4.4553   16.9906 C   0  0  0  0  0  0  0  0  0  0  0  0
   11.7940    5.3447   18.0668 C   0  0  0  0  0  0  0  0  0  0  0  0
   11.7691    6.7000   17.8871 C   0  0  0  0  0  0  0  0  0  0  0  0
   11.6621    7.6592   18.9805 C   0  0  0  0  0  0  0  0  0  0  0  0
   11.6472    9.0026   18.6695 C   0  0  0  0  0  0  0  0  0  0  0  0
   11.5472    9.9860   19.6570 C   0  0  0  0  0  0  0  0  0  0  0  0
   11.4605    9.5925   20.9899 C   0  0  0  0  0  0  0  0  0  0  0  0
   11.4754    8.2456   21.3014 C   0  0  0  0  0  0  0  0  0  0  0  0
   11.5752    7.2971   20.3036 C   0  0  0  0  0  0  0  0  0  0  0  0
   11.8448    7.1842   16.6689 O   0  0  0  0  0  0  0  0  0  0  0  0
   11.9455    6.4109   15.5904 C   0  0  0  0  0  0  0  0  0  0  0  0
   12.0195    7.0236   14.3452 C   0  0  0  0  0  0  0  0  0  0  0  0
   12.1245    6.1967   13.2292 C   0  0  0  0  0  0  0  0  0  0  0  0
   12.1512    4.8277   13.3894 C   0  0  0  0  0  0  0  0  0  0  0  0
   12.2536    3.9940   12.3110 F   0  0  0  0  0  0  0  0  0  0  0  0
   12.0767    4.2310   14.6350 C   0  0  0  0  0  0  0  0  0  0  0  0
   11.9726    5.0437   15.7441 C   0  0  0  0  0  0  0  0  0  0  0  0
  1  2  2  0
  2  3  1  0
  3  4  2  0
  4  5  1  0
  5  6  2  0
  6  7  1  0
  7  8  2  0
  8  9  1  0
  9 10  2  0
  4 11  1  0
 11 12  1  0
 12 13  2  0
 13 14  1  0
 14 15  2  0
 15 16  1  0
 15 17  1  0
 17 18  2  0
 18  2  1  0
 10  5  1  0
 18 12  1  0
M  END
>  <shape_align_shape_tanimoto>  (2) 
0.75897416713327504

>  <shape_align_color_tanimoto>  (2) 
0.11328579667394095

>  <metric>  (2) 
color

>  <metric_score>  (2) 
0.113

>  <template_pid>  (2) 
4L2G

>  <template_shape_score>  (2) 
0.759

>  <template_color_score>  (2) 
0.113

>  <template_combo_score>  (2) 
0.436

$$$$
4L2G_combo_pose
     RDKit          3D

 18 20  0  0  0  0  0  0  0  0999 V2000
   12.0485    6.7962   14.1036 O   0  0  0  0  0  0  0  0  0  0  0  0
   11.9688    6.4215   15.2923 C   0  0  0  0  0  0  0  0  0  0  0  0
   11.8576    7.3395   16.3315 C   0  0  0  0  0  0  0  0  0  0  0  0
   11.7682    6.9503   17.6515 C   0  0  0  0  0  0  0  0  0  0  0  0
   11.6509    7.8876   18.7601 C   0  0  0  0  0  0  0  0  0  0  0  0
   11.5693    7.3697   20.0349 C   0  0  0  0  0  0  0  0  0  0  0  0
   11.4553    8.2246   21.1369 C   0  0  0  0  0  0  0  0  0  0  0  0
   11.4210    9.5976   20.9898 C   0  0  0  0  0  0  0  0  0  0  0  0
   11.5049   10.0824   19.7002 C   0  0  0  0  0  0  0  0  0  0  0  0
   11.6176    9.2556   18.6023 C   0  0  0  0  0  0  0  0  0  0  0  0
   11.7887    5.6693   17.9374 O   0  0  0  0  0  0  0  0  0  0  0  0
   11.8927    4.7350   16.9979 C   0  0  0  0  0  0  0  0  0  0  0  0
   11.9056    3.4118   17.3995 C   0  0  0  0  0  0  0  0  0  0  0  0
   12.0147    2.4344   16.4133 C   0  0  0  0  0  0  0  0  0  0  0  0
   12.1068    2.7986   15.0695 C   0  0  0  0  0  0  0  0  0  0  0  0
   12.2138    1.8605   14.0924 F   0  0  0  0  0  0  0  0  0  0  0  0
   12.0930    4.1251   14.6766 C   0  0  0  0  0  0  0  0  0  0  0  0
   11.9841    5.0892   15.6670 C   0  0  0  0  0  0  0  0  0  0  0  0
  1  2  2  0
  2  3  1  0
  3  4  2  0
  4  5  1  0
  5  6  2  0
  6  7  1  0
  7  8  2  0
  8  9  1  0
  9 10  2  0
  4 11  1  0
 11 12  1  0
 12 13  2  0
 13 14  1  0
 14 15  2  0
 15 16  1  0
 15 17  1  0
 17 18  2  0
 18  2  1  0
 10  5  1  0
 18 12  1  0
M  END
>  <shape_align_shape_tanimoto>  (3) 
0.76381333818715647

>  <shape_align_color_tanimoto>  (3) 
0.11137877744765647

>  <metric>  (3) 
combo

>  <metric_score>  (3) 
0.438

>  <template_pid>  (3) 
4L2G

>  <template_shape_score>  (3) 
0.764

>  <template_color_score>  (3) 
0.111

>  <template_combo_score>  (3) 
0.438

$$$$
