6E3P_shape_pose
     RDKit          3D

 22 24  0  0  0  0  0  0  0  0999 V2000
   -6.2482  -14.8937   19.7577 O   0  0  0  0  0  0  0  0  0  0  0  0
   -7.3360  -15.0662   20.3884 C   0  0  0  0  0  0  0  0  0  0  0  0
   -8.0313  -16.2303   20.1450 O   0  0  0  0  0  0  0  0  0  0  0  0
   -7.7829  -14.0343   21.3243 C   0  0  0  0  0  0  0  0  0  0  0  0
   -7.0520  -13.0062   21.4602 N   0  0  0  0  0  0  0  0  0  0  0  0
   -7.3311  -11.9117   22.3209 C   0  0  0  0  0  0  0  0  0  0  0  0
   -6.3944  -10.7958   22.3711 C   0  0  0  0  0  0  0  0  0  0  0  0
   -5.2426  -10.8118   21.5815 C   0  0  0  0  0  0  0  0  0  0  0  0
   -4.3287   -9.7780   21.5969 C   0  0  0  0  0  0  0  0  0  0  0  0
   -4.5292   -8.6799   22.4064 C   0  0  0  0  0  0  0  0  0  0  0  0
   -5.6568   -8.6342   23.1980 C   0  0  0  0  0  0  0  0  0  0  0  0
   -5.9109   -7.4922   24.0707 C   0  0  0  0  0  0  0  0  0  0  0  0
   -5.1131   -6.4177   24.1899 N   0  0  0  0  0  0  0  0  0  0  0  0
   -5.6287   -5.5621   25.0639 N   0  0  0  0  0  0  0  0  0  0  0  0
   -6.7663   -6.1026   25.5025 N   0  0  0  0  0  0  0  0  0  0  0  0
   -6.9402   -7.2669   24.9058 N   0  0  0  0  0  0  0  0  0  0  0  0
   -6.5642   -9.6896   23.1649 C   0  0  0  0  0  0  0  0  0  0  0  0
   -8.4394  -11.9729   23.0338 C   0  0  0  0  0  0  0  0  0  0  0  0
   -9.3178  -13.1268   22.9206 C   0  0  0  0  0  0  0  0  0  0  0  0
  -10.3671  -13.1540   23.6145 O   0  0  0  0  0  0  0  0  0  0  0  0
   -9.0581  -14.2837   22.0347 C   0  0  0  0  0  0  0  0  0  0  0  0
  -10.0940  -14.2493   21.0741 O   0  0  0  0  0  0  0  0  0  0  0  0
  1  2  2  0
  2  3  1  0
  2  4  1  0
  4  5  2  0
  5  6  1  0
  6  7  1  0
  7  8  2  0
  8  9  1  0
  9 10  2  0
 10 11  1  0
 11 12  1  0
 12 13  2  0
 13 14  1  0
 14 15  2  0
 15 16  1  0
 11 17  2  0
  6 18  2  0
 18 19  1  0
 19 20  2  0
 19 21  1  0
 21 22  1  0
 21  4  1  0
 17  7  1  0
 16 12  1  0
M  CHG  1   3  -1
M  END
>  <shape_align_shape_tanimoto>  (1) 
0.66469258585537239

>  <shape_align_color_tanimoto>  (1) 
0.058257896387644906

>  <metric>  (1) 
shape

>  <metric_score>  (1) 
0.665

>  <template_pid>  (1) 
6E3P

>  <template_shape_score>  (1) 
0.665

>  <template_color_score>  (1) 
0.058

>  <template_combo_score>  (1) 
0.361

$$$$
6E3P_color_pose
     RDKit          3D

 22 24  0  0  0  0  0  0  0  0999 V2000
   -3.3411  -11.0526   20.2497 O   0  0  0  0  0  0  0  0  0  0  0  0
   -3.4209  -10.0209   20.9606 C   0  0  0  0  0  0  0  0  0  0  0  0
   -2.4089   -9.0909   20.8878 O   0  0  0  0  0  0  0  0  0  0  0  0
   -4.5891   -9.8335   21.8494 C   0  0  0  0  0  0  0  0  0  0  0  0
   -5.4642  -10.7642   21.8316 N   0  0  0  0  0  0  0  0  0  0  0  0
   -6.6554  -10.7824   22.6042 C   0  0  0  0  0  0  0  0  0  0  0  0
   -7.5854  -11.9036   22.5010 C   0  0  0  0  0  0  0  0  0  0  0  0
   -8.7448  -12.0040   23.2003 C   0  0  0  0  0  0  0  0  0  0  0  0
   -9.5993  -13.0986   23.0644 C   0  0  0  0  0  0  0  0  0  0  0  0
   -9.2670  -14.1208   22.1932 C   0  0  0  0  0  0  0  0  0  0  0  0
   -8.0906  -14.0332   21.4746 C   0  0  0  0  0  0  0  0  0  0  0  0
   -7.7219  -15.1019   20.5499 C   0  0  0  0  0  0  0  0  0  0  0  0
   -8.4319  -16.2228   20.3022 N   0  0  0  0  0  0  0  0  0  0  0  0
   -7.8130  -16.9766   19.4136 N   0  0  0  0  0  0  0  0  0  0  0  0
   -6.7061  -16.3405   19.0906 N   0  0  0  0  0  0  0  0  0  0  0  0
   -6.6332  -15.2094   19.7643 N   0  0  0  0  0  0  0  0  0  0  0  0
   -7.2762  -12.9482   21.6308 C   0  0  0  0  0  0  0  0  0  0  0  0
   -6.8785   -9.7569   23.4056 C   0  0  0  0  0  0  0  0  0  0  0  0
   -5.9173   -8.6659   23.4689 C   0  0  0  0  0  0  0  0  0  0  0  0
   -6.1514   -7.6943   24.2431 O   0  0  0  0  0  0  0  0  0  0  0  0
   -4.6696   -8.6106   22.6827 C   0  0  0  0  0  0  0  0  0  0  0  0
   -4.8156   -7.5451   21.7739 O   0  0  0  0  0  0  0  0  0  0  0  0
  1  2  2  0
  2  3  1  0
  2  4  1  0
  4  5  2  0
  5  6  1  0
  6  7  1  0
  7  8  2  0
  8  9  1  0
  9 10  2  0
 10 11  1  0
 11 12  1  0
 12 13  2  0
 13 14  1  0
 14 15  2  0
 15 16  1  0
 11 17  2  0
  6 18  2  0
 18 19  1  0
 19 20  2  0
 19 21  1  0
 21 22  1  0
 21  4  1  0
 17  7  1  0
 16 12  1  0
M  CHG  1   3  -1
M  END
>  <shape_align_shape_tanimoto>  (2) 
0.65104115318083411

>  <shape_align_color_tanimoto>  (2) 
0.075989054702637504

>  <metric>  (2) 
color

>  <metric_score>  (2) 
0.076

>  <template_pid>  (2) 
6E3P

>  <template_shape_score>  (2) 
0.651

>  <template_color_score>  (2) 
0.076

>  <template_combo_score>  (2) 
0.364

$$$$
6E3P_combo_pose
     RDKit          3D

 22 24  0  0  0  0  0  0  0  0999 V2000
   -7.6176  -15.9781   20.0651 O   0  0  0  0  0  0  0  0  0  0  0  0
   -7.0702  -14.8835   20.3590 C   0  0  0  0  0  0  0  0  0  0  0  0
   -5.8572  -14.6192   19.7085 O   0  0  0  0  0  0  0  0  0  0  0  0
   -7.6510  -13.9370   21.3168 C   0  0  0  0  0  0  0  0  0  0  0  0
   -7.0224  -12.8614   21.5452 N   0  0  0  0  0  0  0  0  0  0  0  0
   -7.4374  -11.8385   22.4383 C   0  0  0  0  0  0  0  0  0  0  0  0
   -6.6084  -10.6502   22.6008 C   0  0  0  0  0  0  0  0  0  0  0  0
   -6.9292   -9.6085   23.4423 C   0  0  0  0  0  0  0  0  0  0  0  0
   -6.1299   -8.4826   23.5870 C   0  0  0  0  0  0  0  0  0  0  0  0
   -4.9585   -8.3774   22.8684 C   0  0  0  0  0  0  0  0  0  0  0  0
   -4.6290   -9.4160   22.0229 C   0  0  0  0  0  0  0  0  0  0  0  0
   -3.3894   -9.3120   21.2581 C   0  0  0  0  0  0  0  0  0  0  0  0
   -2.8651  -10.1871   20.3809 N   0  0  0  0  0  0  0  0  0  0  0  0
   -1.7125   -9.6825   19.9155 N   0  0  0  0  0  0  0  0  0  0  0  0
   -1.5103   -8.5130   20.4850 N   0  0  0  0  0  0  0  0  0  0  0  0
   -2.5239   -8.2837   21.2998 N   0  0  0  0  0  0  0  0  0  0  0  0
   -5.4313  -10.5303   21.8873 C   0  0  0  0  0  0  0  0  0  0  0  0
   -8.5710  -12.0235   23.0836 C   0  0  0  0  0  0  0  0  0  0  0  0
   -9.3473  -13.2380   22.8702 C   0  0  0  0  0  0  0  0  0  0  0  0
  -10.4354  -13.4042   23.4964 O   0  0  0  0  0  0  0  0  0  0  0  0
   -8.9395  -14.3208   21.9459 C   0  0  0  0  0  0  0  0  0  0  0  0
   -9.8873  -14.3879   20.9004 O   0  0  0  0  0  0  0  0  0  0  0  0
  1  2  2  0
  2  3  1  0
  2  4  1  0
  4  5  2  0
  5  6  1  0
  6  7  1  0
  7  8  2  0
  8  9  1  0
  9 10  2  0
 10 11  1  0
 11 12  1  0
 12 13  2  0
 13 14  1  0
 14 15  2  0
 15 16  1  0
 11 17  2  0
  6 18  2  0
 18 19  1  0
 19 20  2  0
 19 21  1  0
 21 22  1  0
 21  4  1  0
 17  7  1  0
 16 12  1  0
M  CHG  1   3  -1
M  END
>  <shape_align_shape_tanimoto>  (3) 
0.66423949381700886

>  <shape_align_color_tanimoto>  (3) 
0.067810248231681344

>  <metric>  (3) 
combo

>  <metric_score>  (3) 
0.366

>  <template_pid>  (3) 
6E3P

>  <template_shape_score>  (3) 
0.664

>  <template_color_score>  (3) 
0.068

>  <template_combo_score>  (3) 
0.366

$$$$
