4IAX_shape_pose
     RDKit          3D

 42 43  0  0  0  0  0  0  0  0999 V2000
  -17.1037   -6.7630    0.0190 N   0  0  0  0  0  0  0  0  0  0  0  0
  -18.3215   -7.5387   -0.1652 C   0  0  0  0  0  0  0  0  0  0  0  0
  -19.5064   -6.7611   -0.9562 S   0  0  0  0  0  0  0  0  0  0  0  0
  -18.3444   -8.8306    0.3441 N   0  0  0  0  0  0  0  0  0  0  0  0
  -19.3710   -9.7904    0.3102 C   0  0  0  0  0  0  0  0  0  0  0  0
  -20.5993   -9.6397   -0.2798 C   0  0  0  0  0  0  0  0  0  0  0  0
  -21.5651  -10.6296   -0.2692 C   0  0  0  0  0  0  0  0  0  0  0  0
  -21.3447  -11.8652    0.3543 C   0  0  0  0  0  0  0  0  0  0  0  0
  -22.4049  -12.8561    0.2630 C   0  0  0  0  0  0  0  0  0  0  0  0
  -23.5717  -12.7773    1.1885 C   0  0  2  0  0  0  0  0  0  0  0  0
  -23.4555  -12.8780    2.6227 C   0  0  0  0  0  0  0  0  0  0  0  0
  -22.6798  -12.0641    3.4738 N   0  0  2  0  0  0  0  0  0  0  0  0
  -22.5927  -12.8048    4.7788 C   0  0  0  0  0  0  0  0  0  0  0  0
  -21.7269  -13.9859    4.5772 C   0  0  0  0  0  0  0  0  0  0  0  0
  -21.5533  -14.7445    5.5767 O   0  0  0  0  0  0  0  0  0  0  0  0
  -21.0930  -14.3381    3.4103 O   0  0  0  0  0  0  0  0  0  0  0  0
  -23.0853  -10.7101    3.7234 C   0  0  1  0  0  0  0  0  0  0  0  0
  -24.0123  -10.1045    2.6906 C   0  0  0  0  0  0  0  0  0  0  0  0
  -24.2011   -8.6336    3.1209 C   0  0  0  0  0  0  0  0  0  0  0  0
  -25.1098   -8.5367    4.2850 C   0  0  0  0  0  0  0  0  0  0  0  0
  -25.0646   -9.8463    5.0103 C   0  0  0  0  0  0  0  0  0  0  0  0
  -23.6246  -10.4052    5.0728 C   0  0  2  0  0  0  0  0  0  0  0  0
  -22.9022   -9.5051    5.9172 N   0  0  0  0  0  0  0  0  0  0  0  0
  -21.4981   -9.4750    5.8744 C   0  0  0  0  0  0  0  0  0  0  0  0
  -21.0333   -8.0977    5.5820 C   0  0  0  0  0  0  0  0  0  0  0  0
  -19.7790   -7.9018    5.4928 O   0  0  0  0  0  0  0  0  0  0  0  0
  -21.8623   -7.0084    5.3992 O   0  0  0  0  0  0  0  0  0  0  0  0
  -23.2594   -9.8011    7.3169 C   0  0  0  0  0  0  0  0  0  0  0  0
  -23.8451   -8.6438    8.0130 C   0  0  0  0  0  0  0  0  0  0  0  0
  -24.0409   -7.5144    7.5094 O   0  0  0  0  0  0  0  0  0  0  0  0
  -24.2139   -8.8104    9.3414 O   0  0  0  0  0  0  0  0  0  0  0  0
  -24.4469  -13.9333    0.7819 N   0  0  0  0  0  0  0  0  0  0  0  0
  -24.9666  -13.7233   -0.5381 C   0  0  0  0  0  0  0  0  0  0  0  0
  -24.4343  -14.8025   -1.4236 C   0  0  0  0  0  0  0  0  0  0  0  0
  -24.7541  -14.8160   -2.6471 O   0  0  0  0  0  0  0  0  0  0  0  0
  -23.5931  -15.8060   -0.9583 O   0  0  0  0  0  0  0  0  0  0  0  0
  -25.5159  -14.1441    1.6958 C   0  0  0  0  0  0  0  0  0  0  0  0
  -26.5578  -13.0646    1.6753 C   0  0  0  0  0  0  0  0  0  0  0  0
  -26.5242  -12.0864    0.9191 O   0  0  0  0  0  0  0  0  0  0  0  0
  -27.6084  -13.2029    2.5713 O   0  0  0  0  0  0  0  0  0  0  0  0
  -20.1151  -12.0168    0.9445 C   0  0  0  0  0  0  0  0  0  0  0  0
  -19.1571  -11.0308    0.9323 C   0  0  0  0  0  0  0  0  0  0  0  0
  1  2  1  0
  2  3  2  0
  2  4  1  0
  4  5  1  0
  5  6  2  0
  6  7  1  0
  7  8  2  0
  8  9  1  0
 10  9  1  6
 10 11  1  0
 12 11  1  6
 12 13  1  0
 13 14  1  0
 14 15  2  0
 14 16  1  0
 12 17  1  0
 17 18  1  6
 18 19  1  0
 19 20  1  0
 20 21  1  0
 21 22  1  0
 22 23  1  6
 23 24  1  0
 24 25  1  0
 25 26  2  0
 25 27  1  0
 23 28  1  0
 28 29  1  0
 29 30  2  0
 29 31  1  0
 10 32  1  0
 32 33  1  0
 33 34  1  0
 34 35  2  0
 34 36  1  0
 32 37  1  0
 37 38  1  0
 38 39  2  0
 38 40  1  0
  8 41  1  0
 41 42  2  0
 42  5  1  0
 22 17  1  0
M  CHG  8  12   1  16  -1  23   1  27  -1  31  -1  32   1  36  -1  40  -1
M  END
>  <shape_align_shape_tanimoto>  (1) 
0.2771956880114394

>  <shape_align_color_tanimoto>  (1) 
0.020940188816506784

>  <metric>  (1) 
shape

>  <metric_score>  (1) 
0.277

>  <template_pid>  (1) 
4IAX

>  <template_shape_score>  (1) 
0.277

>  <template_color_score>  (1) 
0.021

>  <template_combo_score>  (1) 
0.149

$$$$
4IAX_color_pose
     RDKit          3D

 42 43  0  0  0  0  0  0  0  0999 V2000
  -26.8755   -8.0910   -2.3731 N   0  0  0  0  0  0  0  0  0  0  0  0
  -26.0972   -8.9710   -1.5687 C   0  0  0  0  0  0  0  0  0  0  0  0
  -26.6262   -9.1688   -0.0149 S   0  0  0  0  0  0  0  0  0  0  0  0
  -24.9392   -9.6518   -2.0508 N   0  0  0  0  0  0  0  0  0  0  0  0
  -24.2679  -10.4955   -1.1040 C   0  0  0  0  0  0  0  0  0  0  0  0
  -23.1506   -9.9764   -0.4930 C   0  0  0  0  0  0  0  0  0  0  0  0
  -22.4848  -10.7415    0.4564 C   0  0  0  0  0  0  0  0  0  0  0  0
  -22.9926  -12.0049    0.7379 C   0  0  0  0  0  0  0  0  0  0  0  0
  -22.3679  -12.8852    1.7904 C   0  0  0  0  0  0  0  0  0  0  0  0
  -23.1574  -12.6992    3.0756 C   0  0  2  0  0  0  0  0  0  0  0  0
  -23.0556  -11.2395    3.4046 C   0  0  0  0  0  0  0  0  0  0  0  0
  -23.7217  -10.7799    4.5703 N   0  0  2  0  0  0  0  0  0  0  0  0
  -24.9468  -10.0710    4.1541 C   0  0  0  0  0  0  0  0  0  0  0  0
  -24.7372   -8.8556    3.3964 C   0  0  0  0  0  0  0  0  0  0  0  0
  -25.7768   -8.1865    3.0522 O   0  0  0  0  0  0  0  0  0  0  0  0
  -23.5321   -8.3167    2.9887 O   0  0  0  0  0  0  0  0  0  0  0  0
  -22.9921  -10.2069    5.6194 C   0  0  1  0  0  0  0  0  0  0  0  0
  -21.5731   -9.7610    5.3412 C   0  0  0  0  0  0  0  0  0  0  0  0
  -20.9606   -9.2892    6.6733 C   0  0  0  0  0  0  0  0  0  0  0  0
  -21.5923   -8.0467    7.1952 C   0  0  0  0  0  0  0  0  0  0  0  0
  -22.8431   -7.8275    6.4148 C   0  0  0  0  0  0  0  0  0  0  0  0
  -23.6930   -9.1072    6.3750 C   0  0  2  0  0  0  0  0  0  0  0  0
  -23.9465   -9.4507    7.7653 N   0  0  0  0  0  0  0  0  0  0  0  0
  -24.7775  -10.6235    7.9346 C   0  0  0  0  0  0  0  0  0  0  0  0
  -24.0550  -11.7323    8.6592 C   0  0  0  0  0  0  0  0  0  0  0  0
  -24.7180  -12.7777    8.8537 O   0  0  0  0  0  0  0  0  0  0  0  0
  -22.7438  -11.6009    9.0808 O   0  0  0  0  0  0  0  0  0  0  0  0
  -24.5771   -8.3949    8.4914 C   0  0  0  0  0  0  0  0  0  0  0  0
  -25.9454   -8.0594    8.0712 C   0  0  0  0  0  0  0  0  0  0  0  0
  -26.5145   -7.0985    8.6865 O   0  0  0  0  0  0  0  0  0  0  0  0
  -26.6570   -8.6983    7.0715 O   0  0  0  0  0  0  0  0  0  0  0  0
  -22.7565  -13.6271    4.0839 N   0  0  0  0  0  0  0  0  0  0  0  0
  -21.3699  -13.7552    4.3409 C   0  0  0  0  0  0  0  0  0  0  0  0
  -20.6330  -14.8367    3.7003 C   0  0  0  0  0  0  0  0  0  0  0  0
  -21.0676  -15.7009    2.9138 O   0  0  0  0  0  0  0  0  0  0  0  0
  -19.2533  -14.9276    3.9995 O   0  0  0  0  0  0  0  0  0  0  0  0
  -23.3267  -14.9196    3.7599 C   0  0  0  0  0  0  0  0  0  0  0  0
  -24.7869  -15.0007    4.1201 C   0  0  0  0  0  0  0  0  0  0  0  0
  -25.4210  -14.0496    4.6151 O   0  0  0  0  0  0  0  0  0  0  0  0
  -25.4266  -16.2048    3.8771 O   0  0  0  0  0  0  0  0  0  0  0  0
  -24.1158  -12.5101    0.1123 C   0  0  0  0  0  0  0  0  0  0  0  0
  -24.7771  -11.7496   -0.8303 C   0  0  0  0  0  0  0  0  0  0  0  0
  1  2  1  0
  2  3  2  0
  2  4  1  0
  4  5  1  0
  5  6  2  0
  6  7  1  0
  7  8  2  0
  8  9  1  0
 10  9  1  6
 10 11  1  0
 12 11  1  6
 12 13  1  0
 13 14  1  0
 14 15  2  0
 14 16  1  0
 12 17  1  0
 17 18  1  6
 18 19  1  0
 19 20  1  0
 20 21  1  0
 21 22  1  0
 22 23  1  1
 23 24  1  0
 24 25  1  0
 25 26  2  0
 25 27  1  0
 23 28  1  0
 28 29  1  0
 29 30  2  0
 29 31  1  0
 10 32  1  0
 32 33  1  0
 33 34  1  0
 34 35  2  0
 34 36  1  0
 32 37  1  0
 37 38  1  0
 38 39  2  0
 38 40  1  0
  8 41  1  0
 41 42  2  0
 42  5  1  0
 22 17  1  0
M  CHG  8  12   1  16  -1  23   1  27  -1  31  -1  32   1  36  -1  40  -1
M  END
>  <shape_align_shape_tanimoto>  (2) 
0.26634528147675063

>  <shape_align_color_tanimoto>  (2) 
0.030903409921673015

>  <metric>  (2) 
color

>  <metric_score>  (2) 
0.031

>  <template_pid>  (2) 
4IAX

>  <template_shape_score>  (2) 
0.266

>  <template_color_score>  (2) 
0.031

>  <template_combo_score>  (2) 
0.149

$$$$
4IAX_combo_pose
     RDKit          3D

 42 43  0  0  0  0  0  0  0  0999 V2000
  -31.1579  -10.2594    6.5759 N   0  0  0  0  0  0  0  0  0  0  0  0
  -30.9060  -11.6333    6.3254 C   0  0  0  0  0  0  0  0  0  0  0  0
  -32.2401  -12.5215    5.8949 S   0  0  0  0  0  0  0  0  0  0  0  0
  -29.6654  -12.2746    6.4110 N   0  0  0  0  0  0  0  0  0  0  0  0
  -28.4266  -11.7148    6.7548 C   0  0  0  0  0  0  0  0  0  0  0  0
  -28.2076  -10.3984    7.0866 C   0  0  0  0  0  0  0  0  0  0  0  0
  -26.9496   -9.9041    7.4138 C   0  0  0  0  0  0  0  0  0  0  0  0
  -25.8300  -10.7238    7.4235 C   0  0  0  0  0  0  0  0  0  0  0  0
  -24.5488  -10.1356    7.7833 C   0  0  0  0  0  0  0  0  0  0  0  0
  -23.8025   -9.5017    6.5694 C   0  0  2  0  0  0  0  0  0  0  0  0
  -23.5931  -10.5654    5.6326 C   0  0  0  0  0  0  0  0  0  0  0  0
  -22.9835  -10.4507    4.3558 N   0  0  2  0  0  0  0  0  0  0  0  0
  -23.4647   -9.2248    3.7470 C   0  0  0  0  0  0  0  0  0  0  0  0
  -24.9031   -9.0495    3.6340 C   0  0  0  0  0  0  0  0  0  0  0  0
  -25.3092   -7.9477    3.1025 O   0  0  0  0  0  0  0  0  0  0  0  0
  -25.8886   -9.9140    4.0237 O   0  0  0  0  0  0  0  0  0  0  0  0
  -23.1964  -11.5853    3.4934 C   0  0  1  0  0  0  0  0  0  0  0  0
  -23.1866  -11.0129    2.0610 C   0  0  0  0  0  0  0  0  0  0  0  0
  -23.3183  -12.1373    1.0196 C   0  0  0  0  0  0  0  0  0  0  0  0
  -24.2156  -13.1654    1.6863 C   0  0  0  0  0  0  0  0  0  0  0  0
  -23.3485  -13.7960    2.7091 C   0  0  0  0  0  0  0  0  0  0  0  0
  -22.4187  -12.7712    3.4231 C   0  0  2  0  0  0  0  0  0  0  0  0
  -21.7426  -13.5261    4.3933 N   0  0  0  0  0  0  0  0  0  0  0  0
  -22.4173  -14.0716    5.5038 C   0  0  0  0  0  0  0  0  0  0  0  0
  -22.5252  -15.5525    5.5557 C   0  0  0  0  0  0  0  0  0  0  0  0
  -23.0956  -16.1713    6.4927 O   0  0  0  0  0  0  0  0  0  0  0  0
  -21.9730  -16.3329    4.5227 O   0  0  0  0  0  0  0  0  0  0  0  0
  -20.3516  -13.1382    4.6119 C   0  0  0  0  0  0  0  0  0  0  0  0
  -19.5825  -13.8279    5.6003 C   0  0  0  0  0  0  0  0  0  0  0  0
  -18.3542  -13.4853    5.7741 O   0  0  0  0  0  0  0  0  0  0  0  0
  -20.0084  -14.8642    6.4333 O   0  0  0  0  0  0  0  0  0  0  0  0
  -22.6726   -8.8639    7.2346 N   0  0  0  0  0  0  0  0  0  0  0  0
  -23.0055   -7.5297    7.6562 C   0  0  0  0  0  0  0  0  0  0  0  0
  -22.5203   -6.4000    6.8864 C   0  0  0  0  0  0  0  0  0  0  0  0
  -22.8422   -5.2275    7.3165 O   0  0  0  0  0  0  0  0  0  0  0  0
  -21.7532   -6.4016    5.7435 O   0  0  0  0  0  0  0  0  0  0  0  0
  -21.3997   -8.9978    6.6591 C   0  0  0  0  0  0  0  0  0  0  0  0
  -20.3765   -8.5222    7.6361 C   0  0  0  0  0  0  0  0  0  0  0  0
  -20.6318   -8.0999    8.7827 O   0  0  0  0  0  0  0  0  0  0  0  0
  -19.0487   -8.5667    7.2042 O   0  0  0  0  0  0  0  0  0  0  0  0
  -26.0421  -12.0472    7.0918 C   0  0  0  0  0  0  0  0  0  0  0  0
  -27.2889  -12.5318    6.7687 C   0  0  0  0  0  0  0  0  0  0  0  0
  1  2  1  0
  2  3  2  0
  2  4  1  0
  4  5  1  0
  5  6  2  0
  6  7  1  0
  7  8  2  0
  8  9  1  0
 10  9  1  1
 10 11  1  0
 12 11  1  1
 12 13  1  0
 13 14  1  0
 14 15  2  0
 14 16  1  0
 12 17  1  0
 17 18  1  6
 18 19  1  0
 19 20  1  0
 20 21  1  0
 21 22  1  0
 22 23  1  1
 23 24  1  0
 24 25  1  0
 25 26  2  0
 25 27  1  0
 23 28  1  0
 28 29  1  0
 29 30  2  0
 29 31  1  0
 10 32  1  0
 32 33  1  0
 33 34  1  0
 34 35  2  0
 34 36  1  0
 32 37  1  0
 37 38  1  0
 38 39  2  0
 38 40  1  0
  8 41  1  0
 41 42  2  0
 42  5  1  0
 22 17  1  0
M  CHG  8  12   1  16  -1  23   1  27  -1  31  -1  32   1  36  -1  40  -1
M  END
>  <shape_align_shape_tanimoto>  (3) 
0.27205527809666674

>  <shape_align_color_tanimoto>  (3) 
0.030429045316003711

>  <metric>  (3) 
combo

>  <metric_score>  (3) 
0.151

>  <template_pid>  (3) 
4IAX

>  <template_shape_score>  (3) 
0.272

>  <template_color_score>  (3) 
0.030

>  <template_combo_score>  (3) 
0.151

$$$$
