2OVQ_shape_pose
     RDKit          3D

 90 92  0  0  0  0  0  0  0  0999 V2000
  -15.7474  -48.1165   30.3890 C   0  0  0  0  0  0  0  0  0  0  0  0
  -15.3049  -47.6400   31.7483 C   0  0  0  0  0  0  0  0  0  0  0  0
  -14.0178  -46.8084   31.5830 C   0  0  0  0  0  0  0  0  0  0  0  0
  -16.3113  -46.8452   32.4941 C   0  0  0  0  0  0  0  0  0  0  0  0
  -17.5981  -47.5828   32.7805 C   0  0  2  0  0  0  0  0  0  0  0  0
  -18.4683  -46.6548   33.5193 N   0  0  0  0  0  0  0  0  0  0  0  0
  -19.7233  -46.3561   32.8798 C   0  0  0  0  0  0  0  0  0  0  0  0
  -20.0240  -46.8581   31.7599 O   0  0  0  0  0  0  0  0  0  0  0  0
  -20.6238  -45.4410   33.6142 C   0  0  0  0  0  0  0  0  0  0  0  0
  -21.8788  -45.1894   32.9454 N   0  0  0  0  0  0  0  0  0  0  0  0
  -22.6939  -46.3191   32.6662 C   0  0  0  0  0  0  0  0  0  0  0  0
  -22.2288  -47.4472   33.0260 O   0  0  0  0  0  0  0  0  0  0  0  0
  -23.9954  -46.2959   32.0148 C   0  0  2  0  0  0  0  0  0  0  0  0
  -24.9663  -45.7420   33.1011 C   0  0  0  0  0  0  0  0  0  0  0  0
  -24.6289  -44.4616   33.4721 O   0  0  0  0  0  0  0  0  0  0  0  0
  -24.5180  -47.6387   31.7618 N   0  0  0  0  0  0  0  0  0  0  0  0
  -25.4376  -47.8836   30.7098 C   0  0  0  0  0  0  0  0  0  0  0  0
  -25.7796  -46.8743   30.0213 O   0  0  0  0  0  0  0  0  0  0  0  0
  -25.9844  -49.2447   30.4161 C   0  0  2  0  0  0  0  0  0  0  0  0
  -25.0545  -49.9931   29.4832 C   0  0  0  0  0  0  0  0  0  0  0  0
  -25.6516  -49.9896   28.1137 C   0  0  0  0  0  0  0  0  0  0  0  0
  -26.7939  -49.0277   28.2218 C   0  0  0  0  0  0  0  0  0  0  0  0
  -27.1839  -49.1559   29.6069 N   0  0  0  0  0  0  0  0  0  0  0  0
  -28.5349  -49.1485   30.1230 C   0  0  0  0  0  0  0  0  0  0  0  0
  -29.4723  -48.9529   29.2774 O   0  0  0  0  0  0  0  0  0  0  0  0
  -28.8259  -49.3535   31.5647 C   0  0  1  0  0  0  0  0  0  0  0  0
  -30.0309  -48.4824   31.7845 N   0  0  0  0  0  0  0  0  0  0  0  0
  -29.3395  -50.7160   31.8567 C   0  0  0  0  0  0  0  0  0  0  0  0
  -28.5242  -51.9023   31.5419 C   0  0  0  0  0  0  0  0  0  0  0  0
  -28.1373  -52.1196   30.1242 C   0  0  0  0  0  0  0  0  0  0  0  0
  -27.3510  -52.0506   32.5112 C   0  0  0  0  0  0  0  0  0  0  0  0
  -17.2610  -48.7406   33.6689 C   0  0  0  0  0  0  0  0  0  0  0  0
  -17.4612  -48.5046   34.9153 O   0  0  0  0  0  0  0  0  0  0  0  0
  -16.7780  -49.9754   33.2193 N   0  0  0  0  0  0  0  0  0  0  0  0
  -16.4211  -51.1021   34.0458 C   0  0  1  0  0  0  0  0  0  0  0  0
  -15.8983  -50.6951   35.4246 C   0  0  0  0  0  0  0  0  0  0  0  0
  -14.6516  -49.8515   35.3333 C   0  0  0  0  0  0  0  0  0  0  0  0
  -14.1546  -49.4548   36.7083 C   0  0  0  0  0  0  0  0  0  0  0  0
  -13.5125  -50.6260   34.6885 C   0  0  0  0  0  0  0  0  0  0  0  0
  -17.5049  -52.0858   34.1634 C   0  0  0  0  0  0  0  0  0  0  0  0
  -17.2512  -53.1148   34.8900 O   0  0  0  0  0  0  0  0  0  0  0  0
  -18.7856  -51.9487   33.5315 N   0  0  0  0  0  0  0  0  0  0  0  0
  -19.7820  -52.9595   33.7383 C   0  0  2  0  0  0  0  0  0  0  0  0
  -20.4009  -53.5861   32.5981 C   0  0  0  0  0  0  0  0  0  0  0  0
  -21.3108  -54.4862   32.8965 O   0  0  0  0  0  0  0  0  0  0  0  0
  -20.2251  -53.4241   31.2205 N   0  0  0  0  0  0  0  0  0  0  0  0
  -21.0673  -54.2201   30.2795 C   0  0  0  0  0  0  0  0  0  0  0  0
  -20.2189  -54.3208   29.0300 C   0  0  0  0  0  0  0  0  0  0  0  0
  -18.9188  -53.6283   29.3728 C   0  0  0  0  0  0  0  0  0  0  0  0
  -19.3566  -52.6144   30.3832 C   0  0  1  0  0  0  0  0  0  0  0  0
  -20.0348  -51.4171   29.9460 C   0  0  0  0  0  0  0  0  0  0  0  0
  -20.6818  -50.7882   30.8976 O   0  0  0  0  0  0  0  0  0  0  0  0
  -20.1559  -50.7662   28.7006 N   0  0  0  0  0  0  0  0  0  0  0  0
  -20.8688  -49.4437   28.6937 C   0  0  0  0  0  0  0  0  0  0  0  0
  -21.3519  -49.3285   27.3010 C   0  0  0  0  0  0  0  0  0  0  0  0
  -21.1403  -50.6671   26.6364 C   0  0  0  0  0  0  0  0  0  0  0  0
  -19.8072  -51.0674   27.3519 C   0  0  1  0  0  0  0  0  0  0  0  0
  -18.7878  -50.2367   26.7071 C   0  0  0  0  0  0  0  0  0  0  0  0
  -18.6872  -50.3740   25.4314 O   0  0  0  0  0  0  0  0  0  0  0  0
  -17.9144  -49.3180   27.3093 N   0  0  0  0  0  0  0  0  0  0  0  0
  -16.9923  -48.6153   26.3913 C   0  0  1  0  0  0  0  0  0  0  0  0
  -16.9083  -47.1809   26.7518 C   0  0  0  0  0  0  0  0  0  0  0  0
  -15.9885  -46.4126   25.8527 C   0  0  0  0  0  0  0  0  0  0  0  0
  -16.3524  -46.4134   24.4348 C   0  0  0  0  0  0  0  0  0  0  0  0
  -15.4601  -45.7359   23.5297 N   0  0  0  0  0  0  0  0  0  0  0  0
  -17.3595  -46.9412   23.9233 O   0  0  0  0  0  0  0  0  0  0  0  0
  -15.6946  -49.3306   26.5702 C   0  0  0  0  0  0  0  0  0  0  0  0
  -15.5838  -50.0650   27.6067 O   0  0  0  0  0  0  0  0  0  0  0  0
  -14.6084  -49.2608   25.6924 N   0  0  0  0  0  0  0  0  0  0  0  0
  -13.3422  -49.9524   25.8657 C   0  0  1  0  0  0  0  0  0  0  0  0
  -13.2983  -51.0950   24.8570 C   0  0  0  0  0  0  0  0  0  0  0  0
  -14.3506  -51.9868   25.0747 O   0  0  0  0  0  0  0  0  0  0  0  0
  -14.2537  -53.2254   23.9429 P   0  0  0  0  0  0  0  0  0  0  0  0
  -13.7830  -54.4806   24.6730 O   0  0  0  0  0  0  0  0  0  0  0  0
  -15.7405  -53.5014   23.1870 O   0  0  0  0  0  0  0  0  0  0  0  0
  -13.1105  -52.9263   22.7461 O   0  0  0  0  0  0  0  0  0  0  0  0
  -12.2090  -49.0633   25.5414 C   0  0  0  0  0  0  0  0  0  0  0  0
  -12.3754  -47.8701   25.2029 O   0  0  0  0  0  0  0  0  0  0  0  0
  -10.8899  -49.5996   25.6205 N   0  0  0  0  0  0  0  0  0  0  0  0
   -9.7859  -48.7084   25.2934 C   0  0  0  0  0  0  0  0  0  0  0  0
   -9.9458  -48.2318   23.8883 C   0  0  0  0  0  0  0  0  0  0  0  0
  -10.8966  -48.5741   23.1478 O   0  0  0  0  0  0  0  0  0  0  0  0
   -8.9907  -47.3546   23.3543 O   0  0  0  0  0  0  0  0  0  0  0  0
  -20.8036  -52.3119   34.6797 C   0  0  2  0  0  0  0  0  0  0  0  0
  -20.0110  -51.8798   35.9229 C   0  0  0  0  0  0  0  0  0  0  0  0
  -21.8544  -53.1268   34.9974 O   0  0  0  0  0  0  0  0  0  0  0  0
  -23.3735  -52.4363   34.7461 P   0  0  0  0  0  0  0  0  0  0  0  0
  -23.3532  -50.9584   35.0341 O   0  0  0  0  0  0  0  0  0  0  0  0
  -24.5463  -53.2008   35.7193 O   0  0  0  0  0  0  0  0  0  0  0  0
  -23.8232  -52.7316   33.1458 O   0  0  0  0  0  0  0  0  0  0  0  0
  1  2  1  0
  2  3  1  0
  2  4  1  0
  5  4  1  1
  5  6  1  0
  6  7  1  0
  7  8  2  0
  7  9  1  0
  9 10  1  0
 10 11  1  0
 11 12  2  0
 11 13  1  0
 13 14  1  1
 14 15  1  0
 13 16  1  0
 16 17  1  0
 17 18  2  0
 19 17  1  6
 19 20  1  0
 20 21  1  0
 21 22  1  0
 22 23  1  0
 23 24  1  0
 24 25  2  0
 24 26  1  0
 26 27  1  6
 26 28  1  0
 28 29  1  0
 29 30  1  0
 29 31  1  0
  5 32  1  0
 32 33  2  0
 32 34  1  0
 34 35  1  0
 35 36  1  1
 36 37  1  0
 37 38  1  0
 37 39  1  0
 35 40  1  0
 40 41  2  0
 40 42  1  0
 43 42  1  6
 43 44  1  0
 44 45  2  0
 44 46  1  0
 46 47  1  0
 47 48  1  0
 48 49  1  0
 49 50  1  0
 50 51  1  6
 51 52  2  0
 51 53  1  0
 53 54  1  0
 54 55  1  0
 55 56  1  0
 56 57  1  0
 57 58  1  6
 58 59  2  0
 58 60  1  0
 60 61  1  0
 61 62  1  1
 62 63  1  0
 63 64  1  0
 64 65  1  0
 64 66  2  0
 61 67  1  0
 67 68  2  0
 67 69  1  0
 69 70  1  0
 70 71  1  6
 71 72  1  0
 72 73  1  0
 73 74  2  0
 73 75  1  0
 73 76  1  0
 70 77  1  0
 77 78  2  0
 77 79  1  0
 79 80  1  0
 80 81  1  0
 81 82  2  0
 81 83  1  0
 43 84  1  0
 84 85  1  1
 84 86  1  0
 86 87  1  0
 87 88  2  0
 87 89  1  0
 87 90  1  0
 23 19  1  0
 50 46  1  0
 57 53  1  0
M  CHG  1  27   1
M  END
>  <shape_align_shape_tanimoto>  (1) 
0.36520382022702558

>  <shape_align_color_tanimoto>  (1) 
0.027652796180503217

>  <metric>  (1) 
shape

>  <metric_score>  (1) 
0.365

>  <template_pid>  (1) 
2OVQ

>  <template_shape_score>  (1) 
0.365

>  <template_color_score>  (1) 
0.028

>  <template_combo_score>  (1) 
0.196

$$$$
2OVQ_color_pose
     RDKit          3D

 90 92  0  0  0  0  0  0  0  0999 V2000
  -19.0268  -43.5753   23.4045 C   0  0  0  0  0  0  0  0  0  0  0  0
  -19.7890  -44.8252   23.0908 C   0  0  0  0  0  0  0  0  0  0  0  0
  -18.7665  -45.9516   22.8917 C   0  0  0  0  0  0  0  0  0  0  0  0
  -20.8538  -45.2291   24.0625 C   0  0  0  0  0  0  0  0  0  0  0  0
  -21.9163  -44.1983   24.2219 C   0  0  2  0  0  0  0  0  0  0  0  0
  -21.4715  -42.8963   24.7243 N   0  0  0  0  0  0  0  0  0  0  0  0
  -21.0390  -42.8214   26.0855 C   0  0  0  0  0  0  0  0  0  0  0  0
  -21.0208  -43.8455   26.8593 O   0  0  0  0  0  0  0  0  0  0  0  0
  -20.5711  -41.5441   26.7316 C   0  0  0  0  0  0  0  0  0  0  0  0
  -20.2342  -41.8567   28.1407 N   0  0  0  0  0  0  0  0  0  0  0  0
  -21.2813  -42.3479   29.0264 C   0  0  0  0  0  0  0  0  0  0  0  0
  -22.4697  -42.4908   28.6069 O   0  0  0  0  0  0  0  0  0  0  0  0
  -20.9885  -42.6911   30.4224 C   0  0  2  0  0  0  0  0  0  0  0  0
  -20.0925  -43.9870   30.4636 C   0  0  0  0  0  0  0  0  0  0  0  0
  -18.8921  -43.7328   29.8288 O   0  0  0  0  0  0  0  0  0  0  0  0
  -22.2097  -43.1059   31.1150 N   0  0  0  0  0  0  0  0  0  0  0  0
  -22.2182  -42.9475   32.5313 C   0  0  0  0  0  0  0  0  0  0  0  0
  -21.1817  -42.4624   33.1107 O   0  0  0  0  0  0  0  0  0  0  0  0
  -23.4115  -43.3377   33.3940 C   0  0  2  0  0  0  0  0  0  0  0  0
  -23.2630  -44.8286   33.6466 C   0  0  0  0  0  0  0  0  0  0  0  0
  -24.6419  -45.4088   33.5217 C   0  0  0  0  0  0  0  0  0  0  0  0
  -25.2256  -44.5530   32.3961 C   0  0  0  0  0  0  0  0  0  0  0  0
  -24.6752  -43.2164   32.7019 N   0  0  0  0  0  0  0  0  0  0  0  0
  -25.2944  -41.9600   32.4005 C   0  0  0  0  0  0  0  0  0  0  0  0
  -24.7687  -40.8544   32.6926 O   0  0  0  0  0  0  0  0  0  0  0  0
  -26.6363  -41.8966   31.7085 C   0  0  1  0  0  0  0  0  0  0  0  0
  -27.0601  -40.4949   31.8173 N   0  0  0  0  0  0  0  0  0  0  0  0
  -26.5228  -42.3238   30.2553 C   0  0  0  0  0  0  0  0  0  0  0  0
  -27.8565  -42.2769   29.5293 C   0  0  0  0  0  0  0  0  0  0  0  0
  -28.8637  -43.2063   30.1853 C   0  0  0  0  0  0  0  0  0  0  0  0
  -27.6354  -42.7466   28.1056 C   0  0  0  0  0  0  0  0  0  0  0  0
  -23.0594  -44.6666   25.0745 C   0  0  0  0  0  0  0  0  0  0  0  0
  -23.4322  -43.8788   25.9954 O   0  0  0  0  0  0  0  0  0  0  0  0
  -23.7139  -45.9465   24.8793 N   0  0  0  0  0  0  0  0  0  0  0  0
  -24.7896  -46.1818   25.8721 C   0  0  1  0  0  0  0  0  0  0  0  0
  -26.0752  -46.4125   25.1244 C   0  0  0  0  0  0  0  0  0  0  0  0
  -26.5660  -45.3158   24.2467 C   0  0  0  0  0  0  0  0  0  0  0  0
  -25.7096  -44.8679   23.1092 C   0  0  0  0  0  0  0  0  0  0  0  0
  -27.0538  -44.0975   25.0759 C   0  0  0  0  0  0  0  0  0  0  0  0
  -24.4302  -47.3663   26.7205 C   0  0  0  0  0  0  0  0  0  0  0  0
  -24.6535  -47.2476   27.9661 O   0  0  0  0  0  0  0  0  0  0  0  0
  -23.8643  -48.5719   26.1495 N   0  0  0  0  0  0  0  0  0  0  0  0
  -23.5097  -49.6277   27.0860 C   0  0  2  0  0  0  0  0  0  0  0  0
  -22.5849  -50.6560   26.5146 C   0  0  0  0  0  0  0  0  0  0  0  0
  -22.6974  -50.8793   25.2614 O   0  0  0  0  0  0  0  0  0  0  0  0
  -21.6216  -51.3750   27.2767 N   0  0  0  0  0  0  0  0  0  0  0  0
  -20.8006  -52.5244   26.9610 C   0  0  0  0  0  0  0  0  0  0  0  0
  -20.2092  -53.0323   28.2621 C   0  0  0  0  0  0  0  0  0  0  0  0
  -20.8266  -52.1377   29.3062 C   0  0  0  0  0  0  0  0  0  0  0  0
  -21.1676  -50.8711   28.5958 C   0  0  1  0  0  0  0  0  0  0  0  0
  -19.9401  -50.0222   28.3236 C   0  0  0  0  0  0  0  0  0  0  0  0
  -19.3665  -50.3678   27.2059 O   0  0  0  0  0  0  0  0  0  0  0  0
  -19.4676  -48.9961   29.1380 N   0  0  0  0  0  0  0  0  0  0  0  0
  -20.1159  -48.6271   30.4294 C   0  0  0  0  0  0  0  0  0  0  0  0
  -18.9015  -48.2773   31.3168 C   0  0  0  0  0  0  0  0  0  0  0  0
  -17.6706  -48.3192   30.3654 C   0  0  0  0  0  0  0  0  0  0  0  0
  -18.3599  -48.0510   29.0580 C   0  0  1  0  0  0  0  0  0  0  0  0
  -17.5572  -48.0619   27.8421 C   0  0  0  0  0  0  0  0  0  0  0  0
  -18.1433  -48.3412   26.7292 O   0  0  0  0  0  0  0  0  0  0  0  0
  -16.1626  -47.7974   27.7458 N   0  0  0  0  0  0  0  0  0  0  0  0
  -15.4498  -47.8661   26.4236 C   0  0  1  0  0  0  0  0  0  0  0  0
  -14.8185  -46.5806   26.1002 C   0  0  0  0  0  0  0  0  0  0  0  0
  -14.0723  -46.5775   24.7879 C   0  0  0  0  0  0  0  0  0  0  0  0
  -13.5284  -45.1768   24.5249 C   0  0  0  0  0  0  0  0  0  0  0  0
  -12.8115  -45.0384   23.2874 N   0  0  0  0  0  0  0  0  0  0  0  0
  -13.7056  -44.2333   25.3444 O   0  0  0  0  0  0  0  0  0  0  0  0
  -14.6500  -49.0877   26.4521 C   0  0  0  0  0  0  0  0  0  0  0  0
  -14.6065  -49.6880   27.6184 O   0  0  0  0  0  0  0  0  0  0  0  0
  -13.9259  -49.7323   25.4308 N   0  0  0  0  0  0  0  0  0  0  0  0
  -13.2231  -50.9740   25.7152 C   0  0  1  0  0  0  0  0  0  0  0  0
  -13.6748  -52.1333   24.8231 C   0  0  0  0  0  0  0  0  0  0  0  0
  -15.0110  -52.4558   24.9436 O   0  0  0  0  0  0  0  0  0  0  0  0
  -15.3877  -53.9682   24.2768 P   0  0  0  0  0  0  0  0  0  0  0  0
  -14.2775  -54.9883   24.4928 O   0  0  0  0  0  0  0  0  0  0  0  0
  -16.7555  -54.5538   25.1405 O   0  0  0  0  0  0  0  0  0  0  0  0
  -15.7702  -53.8087   22.6427 O   0  0  0  0  0  0  0  0  0  0  0  0
  -11.7683  -50.8726   25.5759 C   0  0  0  0  0  0  0  0  0  0  0  0
  -11.0909  -51.9565   25.8185 O   0  0  0  0  0  0  0  0  0  0  0  0
  -10.9847  -49.7503   25.2151 N   0  0  0  0  0  0  0  0  0  0  0  0
   -9.5135  -49.8376   25.1300 C   0  0  0  0  0  0  0  0  0  0  0  0
   -8.9919  -48.5008   24.7465 C   0  0  0  0  0  0  0  0  0  0  0  0
   -7.7375  -48.3681   24.6244 O   0  0  0  0  0  0  0  0  0  0  0  0
   -9.8426  -47.4104   24.5240 O   0  0  0  0  0  0  0  0  0  0  0  0
  -24.8508  -50.3857   27.4044 C   0  0  2  0  0  0  0  0  0  0  0  0
  -25.4193  -51.0014   26.1559 C   0  0  0  0  0  0  0  0  0  0  0  0
  -25.7481  -49.5088   27.9758 O   0  0  0  0  0  0  0  0  0  0  0  0
  -26.1528  -49.9967   29.5608 P   0  0  0  0  0  0  0  0  0  0  0  0
  -25.0129  -50.8091   30.1535 O   0  0  0  0  0  0  0  0  0  0  0  0
  -27.5540  -50.9935   29.5621 O   0  0  0  0  0  0  0  0  0  0  0  0
  -26.4604  -48.6277   30.5199 O   0  0  0  0  0  0  0  0  0  0  0  0
  1  2  1  0
  2  3  1  0
  2  4  1  0
  5  4  1  1
  5  6  1  0
  6  7  1  0
  7  8  2  0
  7  9  1  0
  9 10  1  0
 10 11  1  0
 11 12  2  0
 11 13  1  0
 13 14  1  6
 14 15  1  0
 13 16  1  0
 16 17  1  0
 17 18  2  0
 19 17  1  6
 19 20  1  0
 20 21  1  0
 21 22  1  0
 22 23  1  0
 23 24  1  0
 24 25  2  0
 24 26  1  0
 26 27  1  6
 26 28  1  0
 28 29  1  0
 29 30  1  0
 29 31  1  0
  5 32  1  0
 32 33  2  0
 32 34  1  0
 34 35  1  0
 35 36  1  6
 36 37  1  0
 37 38  1  0
 37 39  1  0
 35 40  1  0
 40 41  2  0
 40 42  1  0
 43 42  1  6
 43 44  1  0
 44 45  2  0
 44 46  1  0
 46 47  1  0
 47 48  1  0
 48 49  1  0
 49 50  1  0
 50 51  1  6
 51 52  2  0
 51 53  1  0
 53 54  1  0
 54 55  1  0
 55 56  1  0
 56 57  1  0
 57 58  1  6
 58 59  2  0
 58 60  1  0
 60 61  1  0
 61 62  1  1
 62 63  1  0
 63 64  1  0
 64 65  1  0
 64 66  2  0
 61 67  1  0
 67 68  2  0
 67 69  1  0
 69 70  1  0
 70 71  1  6
 71 72  1  0
 72 73  1  0
 73 74  2  0
 73 75  1  0
 73 76  1  0
 70 77  1  0
 77 78  2  0
 77 79  1  0
 79 80  1  0
 80 81  1  0
 81 82  2  0
 81 83  1  0
 43 84  1  0
 84 85  1  6
 84 86  1  0
 86 87  1  0
 87 88  2  0
 87 89  1  0
 87 90  1  0
 23 19  1  0
 50 46  1  0
 57 53  1  0
M  CHG  1  27   1
M  END
>  <shape_align_shape_tanimoto>  (2) 
0.29960323749764051

>  <shape_align_color_tanimoto>  (2) 
0.057694079478272382

>  <metric>  (2) 
color

>  <metric_score>  (2) 
0.058

>  <template_pid>  (2) 
2OVQ

>  <template_shape_score>  (2) 
0.300

>  <template_color_score>  (2) 
0.058

>  <template_combo_score>  (2) 
0.179

$$$$
2OVQ_combo_pose
     RDKit          3D

 90 92  0  0  0  0  0  0  0  0999 V2000
  -10.6649  -45.7589   25.2355 C   0  0  0  0  0  0  0  0  0  0  0  0
  -11.1899  -46.8972   26.0923 C   0  0  0  0  0  0  0  0  0  0  0  0
  -10.7620  -48.1988   25.4006 C   0  0  0  0  0  0  0  0  0  0  0  0
  -12.6656  -46.8526   26.2568 C   0  0  0  0  0  0  0  0  0  0  0  0
  -13.1929  -45.5935   26.9287 C   0  0  2  0  0  0  0  0  0  0  0  0
  -12.6859  -45.4453   28.2619 N   0  0  0  0  0  0  0  0  0  0  0  0
  -12.2531  -46.4501   29.1410 C   0  0  0  0  0  0  0  0  0  0  0  0
  -12.2833  -47.7068   28.8354 O   0  0  0  0  0  0  0  0  0  0  0  0
  -11.7084  -46.2120   30.5067 C   0  0  0  0  0  0  0  0  0  0  0  0
  -11.6993  -44.8267   30.8703 N   0  0  0  0  0  0  0  0  0  0  0  0
  -12.8156  -43.9973   31.0462 C   0  0  0  0  0  0  0  0  0  0  0  0
  -14.0016  -44.4276   30.8952 O   0  0  0  0  0  0  0  0  0  0  0  0
  -12.5783  -42.5776   31.4237 C   0  0  2  0  0  0  0  0  0  0  0  0
  -11.7538  -42.6138   32.7219 C   0  0  0  0  0  0  0  0  0  0  0  0
  -12.4447  -43.2023   33.7605 O   0  0  0  0  0  0  0  0  0  0  0  0
  -13.7824  -41.8323   31.6159 N   0  0  0  0  0  0  0  0  0  0  0  0
  -14.0989  -40.6062   30.9861 C   0  0  0  0  0  0  0  0  0  0  0  0
  -13.2284  -40.1522   30.1747 O   0  0  0  0  0  0  0  0  0  0  0  0
  -15.3140  -39.8250   31.1803 C   0  0  2  0  0  0  0  0  0  0  0  0
  -14.8861  -38.4448   31.6584 C   0  0  0  0  0  0  0  0  0  0  0  0
  -14.7779  -38.6442   33.1490 C   0  0  0  0  0  0  0  0  0  0  0  0
  -15.5962  -39.8612   33.4659 C   0  0  0  0  0  0  0  0  0  0  0  0
  -16.1931  -40.3093   32.2410 N   0  0  0  0  0  0  0  0  0  0  0  0
  -17.3572  -41.0662   31.9688 C   0  0  0  0  0  0  0  0  0  0  0  0
  -17.6451  -41.2603   30.7158 O   0  0  0  0  0  0  0  0  0  0  0  0
  -18.2900  -41.6637   32.9073 C   0  0  1  0  0  0  0  0  0  0  0  0
  -17.8275  -41.7718   34.2546 N   0  0  0  0  0  0  0  0  0  0  0  0
  -19.6378  -40.9712   32.9481 C   0  0  0  0  0  0  0  0  0  0  0  0
  -20.3822  -40.9488   31.6638 C   0  0  0  0  0  0  0  0  0  0  0  0
  -21.7007  -40.1992   31.9273 C   0  0  0  0  0  0  0  0  0  0  0  0
  -20.8030  -42.3366   31.2218 C   0  0  0  0  0  0  0  0  0  0  0  0
  -14.6549  -45.4612   26.8502 C   0  0  0  0  0  0  0  0  0  0  0  0
  -15.3372  -45.2626   27.9028 O   0  0  0  0  0  0  0  0  0  0  0  0
  -15.2926  -45.5603   25.5838 N   0  0  0  0  0  0  0  0  0  0  0  0
  -16.7075  -45.4658   25.3587 C   0  0  1  0  0  0  0  0  0  0  0  0
  -17.1749  -44.6784   24.2069 C   0  0  0  0  0  0  0  0  0  0  0  0
  -16.8217  -43.2390   24.1677 C   0  0  0  0  0  0  0  0  0  0  0  0
  -15.3303  -43.0525   24.1503 C   0  0  0  0  0  0  0  0  0  0  0  0
  -17.4345  -42.4901   25.3544 C   0  0  0  0  0  0  0  0  0  0  0  0
  -17.1557  -46.9033   25.0991 C   0  0  0  0  0  0  0  0  0  0  0  0
  -18.3601  -47.0765   24.7637 O   0  0  0  0  0  0  0  0  0  0  0  0
  -16.2623  -47.9794   25.2297 N   0  0  0  0  0  0  0  0  0  0  0  0
  -16.5594  -49.3674   25.0011 C   0  0  2  0  0  0  0  0  0  0  0  0
  -16.8301  -50.1732   26.2007 C   0  0  0  0  0  0  0  0  0  0  0  0
  -17.1071  -51.4035   25.9637 O   0  0  0  0  0  0  0  0  0  0  0  0
  -16.8138  -49.7087   27.5443 N   0  0  0  0  0  0  0  0  0  0  0  0
  -16.4806  -48.4363   28.1155 C   0  0  0  0  0  0  0  0  0  0  0  0
  -16.3723  -48.6199   29.6209 C   0  0  0  0  0  0  0  0  0  0  0  0
  -17.1089  -49.8941   29.9095 C   0  0  0  0  0  0  0  0  0  0  0  0
  -17.2615  -50.6267   28.6307 C   0  0  1  0  0  0  0  0  0  0  0  0
  -18.6666  -51.0267   28.3158 C   0  0  0  0  0  0  0  0  0  0  0  0
  -19.1483  -50.4439   27.2815 O   0  0  0  0  0  0  0  0  0  0  0  0
  -19.4080  -51.9614   29.0775 N   0  0  0  0  0  0  0  0  0  0  0  0
  -19.0011  -52.6866   30.2844 C   0  0  0  0  0  0  0  0  0  0  0  0
  -20.2556  -52.7382   31.1214 C   0  0  0  0  0  0  0  0  0  0  0  0
  -21.3429  -52.8329   30.0939 C   0  0  0  0  0  0  0  0  0  0  0  0
  -20.7436  -52.4195   28.8031 C   0  0  1  0  0  0  0  0  0  0  0  0
  -21.5892  -51.4408   28.1022 C   0  0  0  0  0  0  0  0  0  0  0  0
  -21.4533  -51.3797   26.8407 O   0  0  0  0  0  0  0  0  0  0  0  0
  -22.5339  -50.5615   28.6691 N   0  0  0  0  0  0  0  0  0  0  0  0
  -23.2320  -49.6777   27.7274 C   0  0  1  0  0  0  0  0  0  0  0  0
  -24.4331  -50.4683   27.1740 C   0  0  0  0  0  0  0  0  0  0  0  0
  -25.1642  -49.5859   26.2048 C   0  0  0  0  0  0  0  0  0  0  0  0
  -26.3202  -50.3448   25.6137 C   0  0  0  0  0  0  0  0  0  0  0  0
  -27.1344  -49.7009   24.6397 N   0  0  0  0  0  0  0  0  0  0  0  0
  -26.5985  -51.5201   25.9421 O   0  0  0  0  0  0  0  0  0  0  0  0
  -23.7060  -48.4362   28.2947 C   0  0  0  0  0  0  0  0  0  0  0  0
  -24.1051  -47.4373   27.5946 O   0  0  0  0  0  0  0  0  0  0  0  0
  -23.7825  -48.2081   29.7119 N   0  0  0  0  0  0  0  0  0  0  0  0
  -24.2825  -46.9336   30.2452 C   0  0  1  0  0  0  0  0  0  0  0  0
  -25.7510  -47.2241   30.5808 C   0  0  0  0  0  0  0  0  0  0  0  0
  -25.8682  -48.2457   31.5188 O   0  0  0  0  0  0  0  0  0  0  0  0
  -27.4960  -48.7270   31.6834 P   0  0  0  0  0  0  0  0  0  0  0  0
  -28.3869  -47.5324   31.6383 O   0  0  0  0  0  0  0  0  0  0  0  0
  -27.8194  -49.7284   30.3455 O   0  0  0  0  0  0  0  0  0  0  0  0
  -27.7158  -49.6132   33.1026 O   0  0  0  0  0  0  0  0  0  0  0  0
  -23.5390  -46.4836   31.4073 C   0  0  0  0  0  0  0  0  0  0  0  0
  -22.5507  -47.1865   31.7931 O   0  0  0  0  0  0  0  0  0  0  0  0
  -23.8716  -45.3109   32.1146 N   0  0  0  0  0  0  0  0  0  0  0  0
  -23.1024  -44.8784   33.2904 C   0  0  0  0  0  0  0  0  0  0  0  0
  -23.1746  -45.9614   34.3127 C   0  0  0  0  0  0  0  0  0  0  0  0
  -23.8231  -47.0414   34.0956 O   0  0  0  0  0  0  0  0  0  0  0  0
  -22.5560  -45.8693   35.5384 O   0  0  0  0  0  0  0  0  0  0  0  0
  -15.4038  -50.0054   24.2449 C   0  0  2  0  0  0  0  0  0  0  0  0
  -15.3091  -49.3005   22.9053 C   0  0  0  0  0  0  0  0  0  0  0  0
  -15.6082  -51.3670   24.0105 O   0  0  0  0  0  0  0  0  0  0  0  0
  -14.3119  -52.1864   24.7341 P   0  0  0  0  0  0  0  0  0  0  0  0
  -13.0619  -52.0610   23.9326 O   0  0  0  0  0  0  0  0  0  0  0  0
  -14.0217  -51.4644   26.2531 O   0  0  0  0  0  0  0  0  0  0  0  0
  -14.6637  -53.8178   24.9887 O   0  0  0  0  0  0  0  0  0  0  0  0
  1  2  1  0
  2  3  1  0
  2  4  1  0
  5  4  1  1
  5  6  1  0
  6  7  1  0
  7  8  2  0
  7  9  1  0
  9 10  1  0
 10 11  1  0
 11 12  2  0
 11 13  1  0
 13 14  1  1
 14 15  1  0
 13 16  1  0
 16 17  1  0
 17 18  2  0
 19 17  1  1
 19 20  1  0
 20 21  1  0
 21 22  1  0
 22 23  1  0
 23 24  1  0
 24 25  2  0
 24 26  1  0
 26 27  1  1
 26 28  1  0
 28 29  1  0
 29 30  1  0
 29 31  1  0
  5 32  1  0
 32 33  2  0
 32 34  1  0
 34 35  1  0
 35 36  1  6
 36 37  1  0
 37 38  1  0
 37 39  1  0
 35 40  1  0
 40 41  2  0
 40 42  1  0
 43 42  1  1
 43 44  1  0
 44 45  2  0
 44 46  1  0
 46 47  1  0
 47 48  1  0
 48 49  1  0
 49 50  1  0
 50 51  1  6
 51 52  2  0
 51 53  1  0
 53 54  1  0
 54 55  1  0
 55 56  1  0
 56 57  1  0
 57 58  1  1
 58 59  2  0
 58 60  1  0
 60 61  1  0
 61 62  1  1
 62 63  1  0
 63 64  1  0
 64 65  1  0
 64 66  2  0
 61 67  1  0
 67 68  2  0
 67 69  1  0
 69 70  1  0
 70 71  1  1
 71 72  1  0
 72 73  1  0
 73 74  2  0
 73 75  1  0
 73 76  1  0
 70 77  1  0
 77 78  2  0
 77 79  1  0
 79 80  1  0
 80 81  1  0
 81 82  2  0
 81 83  1  0
 43 84  1  0
 84 85  1  6
 84 86  1  0
 86 87  1  0
 87 88  2  0
 87 89  1  0
 87 90  1  0
 23 19  1  0
 50 46  1  0
 57 53  1  0
M  CHG  1  27   1
M  END
>  <shape_align_shape_tanimoto>  (3) 
0.36009716212541021

>  <shape_align_color_tanimoto>  (3) 
0.044416894527732023

>  <metric>  (3) 
combo

>  <metric_score>  (3) 
0.202

>  <template_pid>  (3) 
2OVQ

>  <template_shape_score>  (3) 
0.360

>  <template_color_score>  (3) 
0.044

>  <template_combo_score>  (3) 
0.202

$$$$
