6DZ3_shape_pose
     RDKit          3D

 22 24  0  0  0  0  0  0  0  0999 V2000
  -21.0919   22.2381   60.1284 C   0  0  0  0  0  0  0  0  0  0  0  0
  -21.0036   21.2243   59.4847 C   0  0  0  0  0  0  0  0  0  0  0  0
  -20.9075   19.9588   58.7074 C   0  0  0  0  0  0  0  0  0  0  0  0
  -21.6406   18.5983   59.5149 S   0  0  0  0  0  0  0  0  0  0  0  0
  -20.9142   17.7746   60.8661 C   0  0  0  0  0  0  0  0  0  0  0  0
  -20.6196   18.6356   62.0616 C   0  0  1  0  0  0  0  0  0  0  0  0
  -20.1227   17.6687   63.1455 C   0  0  0  0  0  0  0  0  0  0  0  0
  -18.7955   18.0963   63.5130 N   0  0  1  0  0  0  0  0  0  0  0  0
  -17.9915   17.0766   64.0807 C   0  0  0  0  0  0  0  0  0  0  0  0
  -16.5981   17.5268   64.2625 C   0  0  0  0  0  0  0  0  0  0  0  0
  -16.1258   17.9685   65.5071 C   0  0  0  0  0  0  0  0  0  0  0  0
  -14.8309   18.3267   65.3796 N   0  0  0  0  0  0  0  0  0  0  0  0
  -14.4718   18.1257   64.1003 C   0  0  0  0  0  0  0  0  0  0  0  0
  -13.2526   18.3284   63.4605 C   0  0  0  0  0  0  0  0  0  0  0  0
  -12.1509   18.8370   64.2054 N   0  0  0  0  0  0  0  0  0  0  0  0
  -13.1615   18.0287   62.1415 N   0  0  0  0  0  0  0  0  0  0  0  0
  -14.2439   17.5413   61.4677 C   0  0  0  0  0  0  0  0  0  0  0  0
  -15.4209   17.3466   62.0864 N   0  0  0  0  0  0  0  0  0  0  0  0
  -15.5537   17.6260   63.3739 C   0  0  0  0  0  0  0  0  0  0  0  0
  -18.2351   18.6264   62.3177 C   0  0  0  0  0  0  0  0  0  0  0  0
  -19.3872   19.4928   61.8151 C   0  0  2  0  0  0  0  0  0  0  0  0
  -19.4521   20.6149   62.6180 O   0  0  0  0  0  0  0  0  0  0  0  0
  1  2  3  0
  2  3  1  0
  3  4  1  0
  4  5  1  0
  6  5  1  6
  6  7  1  0
  7  8  1  0
  8  9  1  6
  9 10  1  0
 10 11  2  0
 11 12  1  0
 12 13  1  0
 13 14  2  0
 14 15  1  0
 14 16  1  0
 16 17  2  0
 17 18  1  0
 18 19  2  0
  8 20  1  0
 20 21  1  0
 21 22  1  1
 21  6  1  0
 19 10  1  0
 19 13  1  0
M  CHG  1   8   1
M  END
>  <shape_align_shape_tanimoto>  (1) 
0.7346614191515759

>  <shape_align_color_tanimoto>  (1) 
0.051980405464593392

>  <metric>  (1) 
shape

>  <metric_score>  (1) 
0.735

>  <template_pid>  (1) 
6DZ3

>  <template_shape_score>  (1) 
0.735

>  <template_color_score>  (1) 
0.052

>  <template_combo_score>  (1) 
0.393

$$$$
6DZ3_color_pose
     RDKit          3D

 22 24  0  0  0  0  0  0  0  0999 V2000
  -12.4193   21.6477   62.0656 C   0  0  0  0  0  0  0  0  0  0  0  0
  -12.5520   20.6497   62.7359 C   0  0  0  0  0  0  0  0  0  0  0  0
  -12.6928   19.4366   63.5304 C   0  0  0  0  0  0  0  0  0  0  0  0
  -13.0904   17.9891   62.5531 S   0  0  0  0  0  0  0  0  0  0  0  0
  -14.7296   18.0716   61.7863 C   0  0  0  0  0  0  0  0  0  0  0  0
  -15.7256   18.0414   62.8865 C   0  0  1  0  0  0  0  0  0  0  0  0
  -17.1830   18.1020   62.3920 C   0  0  0  0  0  0  0  0  0  0  0  0
  -17.8111   18.0269   63.6977 N   0  0  1  0  0  0  0  0  0  0  0  0
  -19.2295   18.0650   63.6957 C   0  0  0  0  0  0  0  0  0  0  0  0
  -19.8476   18.9771   62.7302 C   0  0  0  0  0  0  0  0  0  0  0  0
  -20.3735   20.2135   63.0611 C   0  0  0  0  0  0  0  0  0  0  0  0
  -20.8666   20.8252   61.9631 N   0  0  0  0  0  0  0  0  0  0  0  0
  -20.6698   20.0078   60.9283 C   0  0  0  0  0  0  0  0  0  0  0  0
  -20.9815   20.1393   59.5913 C   0  0  0  0  0  0  0  0  0  0  0  0
  -21.6266   21.3227   59.1505 N   0  0  0  0  0  0  0  0  0  0  0  0
  -20.6659   19.1396   58.7459 N   0  0  0  0  0  0  0  0  0  0  0  0
  -20.0636   18.0465   59.1991 C   0  0  0  0  0  0  0  0  0  0  0  0
  -19.7364   17.8695   60.4994 N   0  0  0  0  0  0  0  0  0  0  0  0
  -20.0338   18.8389   61.3655 C   0  0  0  0  0  0  0  0  0  0  0  0
  -17.2145   16.8455   64.2575 C   0  0  0  0  0  0  0  0  0  0  0  0
  -15.7820   16.8034   63.7077 C   0  0  2  0  0  0  0  0  0  0  0  0
  -14.8522   16.8591   64.7585 O   0  0  0  0  0  0  0  0  0  0  0  0
  1  2  3  0
  2  3  1  0
  3  4  1  0
  4  5  1  0
  6  5  1  6
  6  7  1  0
  7  8  1  0
  8  9  1  6
  9 10  1  0
 10 11  2  0
 11 12  1  0
 12 13  1  0
 13 14  2  0
 14 15  1  0
 14 16  1  0
 16 17  2  0
 17 18  1  0
 18 19  2  0
  8 20  1  0
 20 21  1  0
 21 22  1  1
 21  6  1  0
 19 10  1  0
 19 13  1  0
M  CHG  1   8   1
M  END
>  <shape_align_shape_tanimoto>  (2) 
0.56029889267449184

>  <shape_align_color_tanimoto>  (2) 
0.14570155824083106

>  <metric>  (2) 
color

>  <metric_score>  (2) 
0.146

>  <template_pid>  (2) 
6DZ3

>  <template_shape_score>  (2) 
0.560

>  <template_color_score>  (2) 
0.146

>  <template_combo_score>  (2) 
0.353

$$$$
6DZ3_combo_pose
     RDKit          3D

 22 24  0  0  0  0  0  0  0  0999 V2000
  -16.4698   19.2312   66.3134 C   0  0  0  0  0  0  0  0  0  0  0  0
  -15.3118   18.9179   66.3452 C   0  0  0  0  0  0  0  0  0  0  0  0
  -13.9167   18.5196   66.3983 C   0  0  0  0  0  0  0  0  0  0  0  0
  -13.0286   18.5551   64.8889 S   0  0  0  0  0  0  0  0  0  0  0  0
  -13.2719   17.4171   63.6137 C   0  0  0  0  0  0  0  0  0  0  0  0
  -14.5001   17.3426   62.7909 C   0  0  1  0  0  0  0  0  0  0  0  0
  -15.7944   17.0335   63.4210 C   0  0  0  0  0  0  0  0  0  0  0  0
  -16.7890   17.8812   62.7722 N   0  0  1  0  0  0  0  0  0  0  0  0
  -18.0179   18.0216   63.4882 C   0  0  0  0  0  0  0  0  0  0  0  0
  -19.2104   18.0418   62.5579 C   0  0  0  0  0  0  0  0  0  0  0  0
  -20.0811   17.0205   62.2737 C   0  0  0  0  0  0  0  0  0  0  0  0
  -21.0172   17.4260   61.3779 N   0  0  0  0  0  0  0  0  0  0  0  0
  -20.7557   18.7030   61.0826 C   0  0  0  0  0  0  0  0  0  0  0  0
  -21.3836   19.6161   60.2358 C   0  0  0  0  0  0  0  0  0  0  0  0
  -22.5270   19.2837   59.4644 N   0  0  0  0  0  0  0  0  0  0  0  0
  -20.9022   20.8887   60.1215 N   0  0  0  0  0  0  0  0  0  0  0  0
  -19.8172   21.2797   60.8220 C   0  0  0  0  0  0  0  0  0  0  0  0
  -19.2390   20.3704   61.6280 N   0  0  0  0  0  0  0  0  0  0  0  0
  -19.6461   19.1156   61.7936 C   0  0  0  0  0  0  0  0  0  0  0  0
  -16.0918   19.0886   62.4454 C   0  0  0  0  0  0  0  0  0  0  0  0
  -14.7360   18.6078   62.0070 C   0  0  2  0  0  0  0  0  0  0  0  0
  -14.8338   18.2637   60.6473 O   0  0  0  0  0  0  0  0  0  0  0  0
  1  2  3  0
  2  3  1  0
  3  4  1  0
  4  5  1  0
  6  5  1  1
  6  7  1  0
  7  8  1  0
  8  9  1  1
  9 10  1  0
 10 11  2  0
 11 12  1  0
 12 13  1  0
 13 14  2  0
 14 15  1  0
 14 16  1  0
 16 17  2  0
 17 18  1  0
 18 19  2  0
  8 20  1  0
 20 21  1  0
 21 22  1  6
 21  6  1  0
 19 10  1  0
 19 13  1  0
M  CHG  1   8   1
M  END
>  <shape_align_shape_tanimoto>  (3) 
0.7131210529992561

>  <shape_align_color_tanimoto>  (3) 
0.086702907974046103

>  <metric>  (3) 
combo

>  <metric_score>  (3) 
0.400

>  <template_pid>  (3) 
6DZ3

>  <template_shape_score>  (3) 
0.713

>  <template_color_score>  (3) 
0.087

>  <template_combo_score>  (3) 
0.400

$$$$
