6G24_shape_pose
     RDKit          3D

 16 17  0  0  0  0  0  0  0  0999 V2000
   17.5780    1.7972  -23.3219 O   0  0  0  0  0  0  0  0  0  0  0  0
   17.6183    0.9478  -22.4052 C   0  0  0  0  0  0  0  0  0  0  0  0
   16.3803    0.3215  -22.1486 O   0  0  0  0  0  0  0  0  0  0  0  0
   18.7679    0.5617  -21.6170 C   0  0  0  0  0  0  0  0  0  0  0  0
   18.4819   -0.1284  -20.4262 C   0  0  0  0  0  0  0  0  0  0  0  0
   19.4474   -0.3972  -19.4855 C   0  0  0  0  0  0  0  0  0  0  0  0
   20.7228    0.0390  -19.7534 C   0  0  0  0  0  0  0  0  0  0  0  0
   21.0024    0.7084  -20.9146 C   0  0  0  0  0  0  0  0  0  0  0  0
   20.0207    0.9884  -21.8918 C   0  0  0  0  0  0  0  0  0  0  0  0
   20.5292    1.5187  -23.1277 C   0  0  0  0  0  0  0  0  0  0  0  0
   20.0839    1.3579  -24.3375 C   0  0  0  0  0  0  0  0  0  0  0  0
   20.7797    2.0211  -25.4733 C   0  0  0  0  0  0  0  0  0  0  0  0
   20.4541    1.9665  -26.8066 C   0  0  0  0  0  0  0  0  0  0  0  0
   21.2081    2.6355  -27.6788 C   0  0  0  0  0  0  0  0  0  0  0  0
   22.2847    3.3470  -27.1460 C   0  0  0  0  0  0  0  0  0  0  0  0
   22.1672    3.0127  -25.3309 S   0  0  0  0  0  0  0  0  0  0  0  0
  1  2  2  0
  2  3  1  0
  2  4  1  0
  4  5  2  0
  5  6  1  0
  6  7  2  0
  7  8  1  0
  8  9  2  0
  9 10  1  0
 10 11  2  0
 11 12  1  0
 12 13  2  0
 13 14  1  0
 14 15  2  0
 15 16  1  0
  9  4  1  0
 16 12  1  0
M  CHG  1   3  -1
M  END
>  <shape_align_shape_tanimoto>  (1) 
0.78969345257577261

>  <shape_align_color_tanimoto>  (1) 
0.0025829291060322805

>  <metric>  (1) 
shape

>  <metric_score>  (1) 
0.790

>  <template_pid>  (1) 
6G24

>  <template_shape_score>  (1) 
0.790

>  <template_color_score>  (1) 
0.003

>  <template_combo_score>  (1) 
0.396

$$$$
6G24_color_pose
     RDKit          3D

 16 17  0  0  0  0  0  0  0  0999 V2000
   16.7792    1.7012  -25.2797 O   0  0  0  0  0  0  0  0  0  0  0  0
   17.5127    1.3978  -24.2721 C   0  0  0  0  0  0  0  0  0  0  0  0
   16.8034    0.9664  -23.1689 O   0  0  0  0  0  0  0  0  0  0  0  0
   18.9488    1.5338  -24.3915 C   0  0  0  0  0  0  0  0  0  0  0  0
   19.4442    1.9911  -25.6089 C   0  0  0  0  0  0  0  0  0  0  0  0
   20.7721    2.1742  -25.8837 C   0  0  0  0  0  0  0  0  0  0  0  0
   21.6857    1.8898  -24.8967 C   0  0  0  0  0  0  0  0  0  0  0  0
   21.2119    1.4269  -23.6592 C   0  0  0  0  0  0  0  0  0  0  0  0
   19.8666    1.2495  -23.4038 C   0  0  0  0  0  0  0  0  0  0  0  0
   19.4234    0.7693  -22.1110 C   0  0  0  0  0  0  0  0  0  0  0  0
   20.2964    0.4853  -21.1325 C   0  0  0  0  0  0  0  0  0  0  0  0
   19.7935   -0.0078  -19.8140 C   0  0  0  0  0  0  0  0  0  0  0  0
   18.5354   -0.2382  -19.3912 C   0  0  0  0  0  0  0  0  0  0  0  0
   18.3275   -0.6874  -18.1425 C   0  0  0  0  0  0  0  0  0  0  0  0
   19.4454   -0.8827  -17.3717 C   0  0  0  0  0  0  0  0  0  0  0  0
   20.8598   -0.4076  -18.4666 S   0  0  0  0  0  0  0  0  0  0  0  0
  1  2  2  0
  2  3  1  0
  2  4  1  0
  4  5  2  0
  5  6  1  0
  6  7  2  0
  7  8  1  0
  8  9  2  0
  9 10  1  0
 10 11  2  0
 11 12  1  0
 12 13  2  0
 13 14  1  0
 14 15  2  0
 15 16  1  0
  9  4  1  0
 16 12  1  0
M  CHG  1   3  -1
M  END
>  <shape_align_shape_tanimoto>  (2) 
0.72999436504474413

>  <shape_align_color_tanimoto>  (2) 
0.07644466742992656

>  <metric>  (2) 
color

>  <metric_score>  (2) 
0.076

>  <template_pid>  (2) 
6G24

>  <template_shape_score>  (2) 
0.730

>  <template_color_score>  (2) 
0.076

>  <template_combo_score>  (2) 
0.403

$$$$
6G24_combo_pose
     RDKit          3D

 16 17  0  0  0  0  0  0  0  0999 V2000
   17.5579    1.8561  -23.1781 O   0  0  0  0  0  0  0  0  0  0  0  0
   18.0599    1.7909  -24.3226 C   0  0  0  0  0  0  0  0  0  0  0  0
   17.1136    1.7513  -25.3625 O   0  0  0  0  0  0  0  0  0  0  0  0
   19.4590    1.7522  -24.6654 C   0  0  0  0  0  0  0  0  0  0  0  0
   19.7694    2.0488  -26.0045 C   0  0  0  0  0  0  0  0  0  0  0  0
   21.0637    2.2330  -26.4321 C   0  0  0  0  0  0  0  0  0  0  0  0
   22.0571    2.1153  -25.4905 C   0  0  0  0  0  0  0  0  0  0  0  0
   21.7576    1.8241  -24.1901 C   0  0  0  0  0  0  0  0  0  0  0  0
   20.4380    1.6265  -23.7253 C   0  0  0  0  0  0  0  0  0  0  0  0
   20.3249    1.1405  -22.3895 C   0  0  0  0  0  0  0  0  0  0  0  0
   19.4333    0.3533  -21.8583 C   0  0  0  0  0  0  0  0  0  0  0  0
   19.5263   -0.0015  -20.4410 C   0  0  0  0  0  0  0  0  0  0  0  0
   18.6502   -0.8347  -19.7099 C   0  0  0  0  0  0  0  0  0  0  0  0
   18.9178   -1.0260  -18.4310 C   0  0  0  0  0  0  0  0  0  0  0  0
   20.0190   -0.4210  -17.8593 C   0  0  0  0  0  0  0  0  0  0  0  0
   20.7351    0.5182  -19.3268 S   0  0  0  0  0  0  0  0  0  0  0  0
  1  2  2  0
  2  3  1  0
  2  4  1  0
  4  5  2  0
  5  6  1  0
  6  7  2  0
  7  8  1  0
  8  9  2  0
  9 10  1  0
 10 11  2  0
 11 12  1  0
 12 13  2  0
 13 14  1  0
 14 15  2  0
 15 16  1  0
  9  4  1  0
 16 12  1  0
M  CHG  1   3  -1
M  END
>  <shape_align_shape_tanimoto>  (3) 
0.78904137312729805

>  <shape_align_color_tanimoto>  (3) 
0.069241188864060249

>  <metric>  (3) 
combo

>  <metric_score>  (3) 
0.429

>  <template_pid>  (3) 
6G24

>  <template_shape_score>  (3) 
0.789

>  <template_color_score>  (3) 
0.069

>  <template_combo_score>  (3) 
0.429

$$$$
