6I9A_shape_pose
     RDKit          3D

 46 48  0  0  0  0  0  0  0  0999 V2000
  -15.4072   87.9971   35.2909 C   0  0  0  0  0  0  0  0  0  0  0  0
  -15.4425   89.4274   35.4313 N   0  0  0  0  0  0  0  0  0  0  0  0
  -15.9428   90.0934   36.5612 N   0  0  0  0  0  0  0  0  0  0  0  0
  -17.3237   90.3833   36.6611 C   0  0  0  0  0  0  0  0  0  0  0  0
  -18.0393   89.9919   35.6727 O   0  0  0  0  0  0  0  0  0  0  0  0
  -17.9066   91.0900   37.8290 C   0  0  0  0  0  0  0  0  0  0  0  0
  -19.3816   91.2531   37.7843 C   0  0  0  0  0  0  0  0  0  0  0  0
  -19.9392   92.0723   36.6875 C   0  0  2  0  0  0  0  0  0  0  0  0
  -19.5437   93.4378   36.6498 N   0  0  0  0  0  0  0  0  0  0  0  0
  -19.1902   94.2182   35.5220 C   0  0  0  0  0  0  0  0  0  0  0  0
  -19.1854   93.7822   34.3386 O   0  0  0  0  0  0  0  0  0  0  0  0
  -18.8396   95.5196   35.7270 O   0  0  0  0  0  0  0  0  0  0  0  0
  -18.4897   96.5149   34.8395 C   0  0  0  0  0  0  0  0  0  0  0  0
  -17.3289   96.2885   33.9621 C   0  0  0  0  0  0  0  0  0  0  0  0
  -16.0158   96.5667   34.3249 C   0  0  0  0  0  0  0  0  0  0  0  0
  -15.0227   96.3544   33.3994 C   0  0  0  0  0  0  0  0  0  0  0  0
  -15.3068   95.8769   32.1359 C   0  0  0  0  0  0  0  0  0  0  0  0
  -16.5979   95.5942   31.7541 C   0  0  0  0  0  0  0  0  0  0  0  0
  -17.6249   95.7998   32.6735 C   0  0  0  0  0  0  0  0  0  0  0  0
  -21.4219   91.8610   36.5391 C   0  0  0  0  0  0  0  0  0  0  0  0
  -21.9272   90.7481   36.9114 O   0  0  0  0  0  0  0  0  0  0  0  0
  -22.2071   92.9029   35.9838 N   0  0  0  0  0  0  0  0  0  0  0  0
  -23.6657   92.7658   35.8153 C   0  0  1  0  0  0  0  0  0  0  0  0
  -24.3284   94.0628   35.6472 C   0  0  0  0  0  0  0  0  0  0  0  0
  -25.8256   94.0266   35.4839 C   0  0  0  0  0  0  0  0  0  0  0  0
  -26.3868   95.4364   35.3182 C   0  0  0  0  0  0  0  0  0  0  0  0
  -27.8729   95.4597   35.1634 C   0  0  0  0  0  0  0  0  0  0  0  0
  -28.3867   94.7245   34.0488 N   0  0  0  0  0  0  0  0  0  0  0  0
  -23.7875   91.8125   34.6288 C   0  0  2  0  0  0  0  0  0  0  0  0
  -23.2297   92.3380   33.4785 O   0  0  0  0  0  0  0  0  0  0  0  0
  -25.1192   91.2377   34.4209 C   0  0  0  0  0  0  0  0  0  0  0  0
  -25.7526   90.8539   35.4503 O   0  0  0  0  0  0  0  0  0  0  0  0
  -25.6531   91.1246   33.1080 N   0  0  0  0  0  0  0  0  0  0  0  0
  -26.9548   90.5797   32.8052 C   0  0  0  0  0  0  0  0  0  0  0  0
  -27.0325   89.1038   32.9180 C   0  0  0  0  0  0  0  0  0  0  0  0
  -27.4181   88.4487   34.0636 C   0  0  0  0  0  0  0  0  0  0  0  0
  -27.4788   87.0658   34.1115 C   0  0  0  0  0  0  0  0  0  0  0  0
  -27.1476   86.3353   32.9944 C   0  0  0  0  0  0  0  0  0  0  0  0
  -26.7518   86.9715   31.8153 C   0  0  0  0  0  0  0  0  0  0  0  0
  -26.7016   88.3485   31.7996 C   0  0  0  0  0  0  0  0  0  0  0  0
  -14.9373   90.2803   34.3783 C   0  0  0  0  0  0  0  0  0  0  0  0
  -14.9555   91.6485   34.5114 C   0  0  0  0  0  0  0  0  0  0  0  0
  -14.4761   92.4422   33.5024 C   0  0  0  0  0  0  0  0  0  0  0  0
  -13.9616   91.9341   32.3288 C   0  0  0  0  0  0  0  0  0  0  0  0
  -13.9375   90.5383   32.1826 C   0  0  0  0  0  0  0  0  0  0  0  0
  -14.4290   89.7599   33.2175 C   0  0  0  0  0  0  0  0  0  0  0  0
  1  2  1  0
  2  3  1  0
  3  4  1  0
  4  5  2  0
  4  6  1  0
  6  7  1  0
  8  7  1  1
  8  9  1  0
  9 10  1  0
 10 11  2  0
 10 12  1  0
 12 13  1  0
 13 14  1  0
 14 15  2  0
 15 16  1  0
 16 17  2  0
 17 18  1  0
 18 19  2  0
  8 20  1  0
 20 21  2  0
 20 22  1  0
 22 23  1  0
 23 24  1  6
 24 25  1  0
 25 26  1  0
 26 27  1  0
 27 28  1  0
 23 29  1  0
 29 30  1  6
 29 31  1  0
 31 32  2  0
 31 33  1  0
 33 34  1  0
 34 35  1  0
 35 36  2  0
 36 37  1  0
 37 38  2  0
 38 39  1  0
 39 40  2  0
  2 41  1  0
 41 42  2  0
 42 43  1  0
 43 44  2  0
 44 45  1  0
 45 46  2  0
 19 14  1  0
 40 35  1  0
 46 41  1  0
M  CHG  1  28   1
M  END
>  <shape_align_shape_tanimoto>  (1) 
0.49234063604323636

>  <shape_align_color_tanimoto>  (1) 
0.051962177020632064

>  <metric>  (1) 
shape

>  <metric_score>  (1) 
0.492

>  <template_pid>  (1) 
6I9A

>  <template_shape_score>  (1) 
0.492

>  <template_color_score>  (1) 
0.052

>  <template_combo_score>  (1) 
0.272

$$$$
6I9A_color_pose
     RDKit          3D

 46 48  0  0  0  0  0  0  0  0999 V2000
  -18.3897   92.7880   32.3418 C   0  0  0  0  0  0  0  0  0  0  0  0
  -17.9859   92.8940   33.7172 N   0  0  0  0  0  0  0  0  0  0  0  0
  -18.9168   93.3740   34.6244 N   0  0  0  0  0  0  0  0  0  0  0  0
  -19.7642   92.4664   35.3177 C   0  0  0  0  0  0  0  0  0  0  0  0
  -19.6145   91.2762   35.0686 O   0  0  0  0  0  0  0  0  0  0  0  0
  -20.7203   93.0548   36.2479 C   0  0  0  0  0  0  0  0  0  0  0  0
  -21.6652   92.1024   36.8806 C   0  0  0  0  0  0  0  0  0  0  0  0
  -22.5038   91.4607   35.8216 C   0  0  2  0  0  0  0  0  0  0  0  0
  -23.2337   92.4422   35.1117 N   0  0  0  0  0  0  0  0  0  0  0  0
  -24.2776   93.2264   35.6969 C   0  0  0  0  0  0  0  0  0  0  0  0
  -24.5303   92.9978   36.8783 O   0  0  0  0  0  0  0  0  0  0  0  0
  -24.9160   94.1562   34.9414 O   0  0  0  0  0  0  0  0  0  0  0  0
  -25.9343   94.9705   35.3770 C   0  0  0  0  0  0  0  0  0  0  0  0
  -27.1501   94.2865   35.8199 C   0  0  0  0  0  0  0  0  0  0  0  0
  -27.4249   93.9251   37.0994 C   0  0  0  0  0  0  0  0  0  0  0  0
  -28.6060   93.2690   37.3933 C   0  0  0  0  0  0  0  0  0  0  0  0
  -29.5163   92.9725   36.4066 C   0  0  0  0  0  0  0  0  0  0  0  0
  -29.2471   93.3333   35.1167 C   0  0  0  0  0  0  0  0  0  0  0  0
  -28.0809   93.9748   34.8653 C   0  0  0  0  0  0  0  0  0  0  0  0
  -23.2604   90.3266   36.3185 C   0  0  0  0  0  0  0  0  0  0  0  0
  -22.6187   89.4864   37.0138 O   0  0  0  0  0  0  0  0  0  0  0  0
  -24.6175   90.0684   36.1083 N   0  0  0  0  0  0  0  0  0  0  0  0
  -25.2694   88.9395   36.6345 C   0  0  1  0  0  0  0  0  0  0  0  0
  -26.5026   89.1676   37.4035 C   0  0  0  0  0  0  0  0  0  0  0  0
  -26.2734   90.0197   38.6232 C   0  0  0  0  0  0  0  0  0  0  0  0
  -27.5801   90.1657   39.3252 C   0  0  0  0  0  0  0  0  0  0  0  0
  -27.5145   90.9668   40.5792 C   0  0  0  0  0  0  0  0  0  0  0  0
  -27.0605   92.3079   40.3894 N   0  0  0  0  0  0  0  0  0  0  0  0
  -25.4957   87.8806   35.6092 C   0  0  2  0  0  0  0  0  0  0  0  0
  -24.2777   87.4273   35.1132 O   0  0  0  0  0  0  0  0  0  0  0  0
  -26.3635   88.3256   34.5136 C   0  0  0  0  0  0  0  0  0  0  0  0
  -27.5055   88.7984   34.6771 O   0  0  0  0  0  0  0  0  0  0  0  0
  -25.8902   88.2132   33.2137 N   0  0  0  0  0  0  0  0  0  0  0  0
  -26.5841   88.5826   32.0244 C   0  0  0  0  0  0  0  0  0  0  0  0
  -26.6354   90.0169   31.7665 C   0  0  0  0  0  0  0  0  0  0  0  0
  -27.6938   90.7755   32.1777 C   0  0  0  0  0  0  0  0  0  0  0  0
  -27.6239   92.1218   31.8748 C   0  0  0  0  0  0  0  0  0  0  0  0
  -26.5960   92.6884   31.2179 C   0  0  0  0  0  0  0  0  0  0  0  0
  -25.5270   91.9151   30.8038 C   0  0  0  0  0  0  0  0  0  0  0  0
  -25.5686   90.5869   31.0883 C   0  0  0  0  0  0  0  0  0  0  0  0
  -16.6836   92.5075   34.0833 C   0  0  0  0  0  0  0  0  0  0  0  0
  -15.8654   92.0540   33.0817 C   0  0  0  0  0  0  0  0  0  0  0  0
  -14.6058   91.6731   33.4322 C   0  0  0  0  0  0  0  0  0  0  0  0
  -14.1998   91.7508   34.7430 C   0  0  0  0  0  0  0  0  0  0  0  0
  -15.0048   92.2005   35.7462 C   0  0  0  0  0  0  0  0  0  0  0  0
  -16.2787   92.5829   35.3739 C   0  0  0  0  0  0  0  0  0  0  0  0
  1  2  1  0
  2  3  1  0
  3  4  1  0
  4  5  2  0
  4  6  1  0
  6  7  1  0
  8  7  1  1
  8  9  1  0
  9 10  1  0
 10 11  2  0
 10 12  1  0
 12 13  1  0
 13 14  1  0
 14 15  2  0
 15 16  1  0
 16 17  2  0
 17 18  1  0
 18 19  2  0
  8 20  1  0
 20 21  2  0
 20 22  1  0
 22 23  1  0
 23 24  1  6
 24 25  1  0
 25 26  1  0
 26 27  1  0
 27 28  1  0
 23 29  1  0
 29 30  1  6
 29 31  1  0
 31 32  2  0
 31 33  1  0
 33 34  1  0
 34 35  1  0
 35 36  2  0
 36 37  1  0
 37 38  2  0
 38 39  1  0
 39 40  2  0
  2 41  1  0
 41 42  2  0
 42 43  1  0
 43 44  2  0
 44 45  1  0
 45 46  2  0
 19 14  1  0
 40 35  1  0
 46 41  1  0
M  CHG  1  28   1
M  END
>  <shape_align_shape_tanimoto>  (2) 
0.37927432166808556

>  <shape_align_color_tanimoto>  (2) 
0.077530837497942387

>  <metric>  (2) 
color

>  <metric_score>  (2) 
0.078

>  <template_pid>  (2) 
6I9A

>  <template_shape_score>  (2) 
0.379

>  <template_color_score>  (2) 
0.078

>  <template_combo_score>  (2) 
0.228

$$$$
6I9A_combo_pose
     RDKit          3D

 46 48  0  0  0  0  0  0  0  0999 V2000
  -15.4072   87.9971   35.2909 C   0  0  0  0  0  0  0  0  0  0  0  0
  -15.4425   89.4274   35.4313 N   0  0  0  0  0  0  0  0  0  0  0  0
  -15.9428   90.0934   36.5612 N   0  0  0  0  0  0  0  0  0  0  0  0
  -17.3237   90.3833   36.6611 C   0  0  0  0  0  0  0  0  0  0  0  0
  -18.0393   89.9919   35.6727 O   0  0  0  0  0  0  0  0  0  0  0  0
  -17.9066   91.0900   37.8290 C   0  0  0  0  0  0  0  0  0  0  0  0
  -19.3816   91.2531   37.7843 C   0  0  0  0  0  0  0  0  0  0  0  0
  -19.9392   92.0723   36.6875 C   0  0  2  0  0  0  0  0  0  0  0  0
  -19.5437   93.4378   36.6498 N   0  0  0  0  0  0  0  0  0  0  0  0
  -19.1902   94.2182   35.5220 C   0  0  0  0  0  0  0  0  0  0  0  0
  -19.1854   93.7822   34.3386 O   0  0  0  0  0  0  0  0  0  0  0  0
  -18.8396   95.5196   35.7270 O   0  0  0  0  0  0  0  0  0  0  0  0
  -18.4897   96.5149   34.8395 C   0  0  0  0  0  0  0  0  0  0  0  0
  -17.3289   96.2885   33.9621 C   0  0  0  0  0  0  0  0  0  0  0  0
  -16.0158   96.5667   34.3249 C   0  0  0  0  0  0  0  0  0  0  0  0
  -15.0227   96.3544   33.3994 C   0  0  0  0  0  0  0  0  0  0  0  0
  -15.3068   95.8769   32.1359 C   0  0  0  0  0  0  0  0  0  0  0  0
  -16.5979   95.5942   31.7541 C   0  0  0  0  0  0  0  0  0  0  0  0
  -17.6249   95.7998   32.6735 C   0  0  0  0  0  0  0  0  0  0  0  0
  -21.4219   91.8610   36.5391 C   0  0  0  0  0  0  0  0  0  0  0  0
  -21.9272   90.7481   36.9114 O   0  0  0  0  0  0  0  0  0  0  0  0
  -22.2071   92.9029   35.9838 N   0  0  0  0  0  0  0  0  0  0  0  0
  -23.6657   92.7658   35.8153 C   0  0  1  0  0  0  0  0  0  0  0  0
  -24.3284   94.0628   35.6472 C   0  0  0  0  0  0  0  0  0  0  0  0
  -25.8256   94.0266   35.4839 C   0  0  0  0  0  0  0  0  0  0  0  0
  -26.3868   95.4364   35.3182 C   0  0  0  0  0  0  0  0  0  0  0  0
  -27.8729   95.4597   35.1634 C   0  0  0  0  0  0  0  0  0  0  0  0
  -28.3867   94.7245   34.0488 N   0  0  0  0  0  0  0  0  0  0  0  0
  -23.7875   91.8125   34.6288 C   0  0  2  0  0  0  0  0  0  0  0  0
  -23.2297   92.3380   33.4785 O   0  0  0  0  0  0  0  0  0  0  0  0
  -25.1192   91.2377   34.4209 C   0  0  0  0  0  0  0  0  0  0  0  0
  -25.7526   90.8539   35.4503 O   0  0  0  0  0  0  0  0  0  0  0  0
  -25.6531   91.1246   33.1080 N   0  0  0  0  0  0  0  0  0  0  0  0
  -26.9548   90.5797   32.8052 C   0  0  0  0  0  0  0  0  0  0  0  0
  -27.0325   89.1038   32.9180 C   0  0  0  0  0  0  0  0  0  0  0  0
  -27.4181   88.4487   34.0636 C   0  0  0  0  0  0  0  0  0  0  0  0
  -27.4788   87.0658   34.1115 C   0  0  0  0  0  0  0  0  0  0  0  0
  -27.1476   86.3353   32.9944 C   0  0  0  0  0  0  0  0  0  0  0  0
  -26.7518   86.9715   31.8153 C   0  0  0  0  0  0  0  0  0  0  0  0
  -26.7016   88.3485   31.7996 C   0  0  0  0  0  0  0  0  0  0  0  0
  -14.9373   90.2803   34.3783 C   0  0  0  0  0  0  0  0  0  0  0  0
  -14.9555   91.6485   34.5114 C   0  0  0  0  0  0  0  0  0  0  0  0
  -14.4761   92.4422   33.5024 C   0  0  0  0  0  0  0  0  0  0  0  0
  -13.9616   91.9341   32.3288 C   0  0  0  0  0  0  0  0  0  0  0  0
  -13.9375   90.5383   32.1826 C   0  0  0  0  0  0  0  0  0  0  0  0
  -14.4290   89.7599   33.2175 C   0  0  0  0  0  0  0  0  0  0  0  0
  1  2  1  0
  2  3  1  0
  3  4  1  0
  4  5  2  0
  4  6  1  0
  6  7  1  0
  8  7  1  1
  8  9  1  0
  9 10  1  0
 10 11  2  0
 10 12  1  0
 12 13  1  0
 13 14  1  0
 14 15  2  0
 15 16  1  0
 16 17  2  0
 17 18  1  0
 18 19  2  0
  8 20  1  0
 20 21  2  0
 20 22  1  0
 22 23  1  0
 23 24  1  6
 24 25  1  0
 25 26  1  0
 26 27  1  0
 27 28  1  0
 23 29  1  0
 29 30  1  6
 29 31  1  0
 31 32  2  0
 31 33  1  0
 33 34  1  0
 34 35  1  0
 35 36  2  0
 36 37  1  0
 37 38  2  0
 38 39  1  0
 39 40  2  0
  2 41  1  0
 41 42  2  0
 42 43  1  0
 43 44  2  0
 44 45  1  0
 45 46  2  0
 19 14  1  0
 40 35  1  0
 46 41  1  0
M  CHG  1  28   1
M  END
>  <shape_align_shape_tanimoto>  (3) 
0.49234063604323636

>  <shape_align_color_tanimoto>  (3) 
0.051962177020632064

>  <metric>  (3) 
combo

>  <metric_score>  (3) 
0.272

>  <template_pid>  (3) 
6I9A

>  <template_shape_score>  (3) 
0.492

>  <template_color_score>  (3) 
0.052

>  <template_combo_score>  (3) 
0.272

$$$$
