6MOA_shape_pose
     RDKit          3D

 30 35  0  0  0  0  0  0  0  0999 V2000
   13.4384   14.6658   17.9165 C   0  0  0  0  0  0  0  0  0  0  0  0
   14.0824   13.4185   17.3834 C   0  0  0  0  0  0  0  0  0  0  0  0
   14.9970   13.5627   16.3508 C   0  0  0  0  0  0  0  0  0  0  0  0
   15.6096   12.4140   15.8382 C   0  0  0  0  0  0  0  0  0  0  0  0
   15.2856   11.1786   16.3743 C   0  0  0  0  0  0  0  0  0  0  0  0
   15.8788   10.0711   15.8771 N   0  0  0  0  0  0  0  0  0  0  0  0
   15.5883    8.8344   16.3762 C   0  0  0  0  0  0  0  0  0  0  0  0
   14.6700    8.7136   17.4095 C   0  0  0  0  0  0  0  0  0  0  0  0
   14.0319    9.8295   17.9550 C   0  0  0  0  0  0  0  0  0  0  0  0
   14.3600   11.0542   17.4161 C   0  0  0  0  0  0  0  0  0  0  0  0
   13.7564   12.1823   17.9216 C   0  0  0  0  0  0  0  0  0  0  0  0
   12.7812   12.1709   19.0021 C   0  0  0  0  0  0  0  0  0  0  0  0
   13.2382   12.2822   20.2979 C   0  0  0  0  0  0  0  0  0  0  0  0
   12.3684   12.2784   21.3700 C   0  0  0  0  0  0  0  0  0  0  0  0
   12.8821   12.3970   22.7136 C   0  0  0  0  0  0  0  0  0  0  0  0
   13.2542   11.3181   23.5241 C   0  0  0  0  0  0  0  0  0  0  0  0
   13.1824    9.8928   23.1396 C   0  0  0  0  0  0  0  0  0  0  0  0
   13.6684   11.8435   24.6677 N   0  0  0  0  0  0  0  0  0  0  0  0
   13.5756   13.1417   24.6093 O   0  0  0  0  0  0  0  0  0  0  0  0
   13.1051   13.5470   23.4504 C   0  0  0  0  0  0  0  0  0  0  0  0
   12.8394   14.9022   22.9533 C   0  0  0  0  0  0  0  0  0  0  0  0
   10.9948   12.1577   21.1117 C   0  0  0  0  0  0  0  0  0  0  0  0
   10.5469   12.0470   19.8149 C   0  0  0  0  0  0  0  0  0  0  0  0
    9.2717   11.9210   19.3386 N   0  0  0  0  0  0  0  0  0  0  0  0
    9.3987   11.8516   17.9942 C   0  0  0  0  0  0  0  0  0  0  0  0
    8.2442   11.7084   17.0681 C   0  0  0  0  0  0  0  0  0  0  0  0
    8.4729   10.9756   15.7861 C   0  0  0  0  0  0  0  0  0  0  0  0
    8.2934   12.4831   15.7490 C   0  0  0  0  0  0  0  0  0  0  0  0
   10.6955   11.9303   17.6376 N   0  0  0  0  0  0  0  0  0  0  0  0
   11.4260   12.0527   18.7642 C   0  0  0  0  0  0  0  0  0  0  0  0
  1  2  1  0
  2  3  2  0
  3  4  1  0
  4  5  2  0
  5  6  1  0
  6  7  2  0
  7  8  1  0
  8  9  2  0
  9 10  1  0
 10 11  2  0
 11 12  1  0
 12 13  2  0
 13 14  1  0
 14 15  1  0
 15 16  1  0
 16 17  1  0
 16 18  2  0
 18 19  1  0
 19 20  1  0
 20 21  1  0
 14 22  2  0
 22 23  1  0
 23 24  1  0
 24 25  1  0
 25 26  1  0
 26 27  1  0
 27 28  1  0
 25 29  2  0
 29 30  1  0
 11  2  1  0
 30 12  1  0
 10  5  1  0
 20 15  2  0
 30 23  2  0
 28 26  1  0
M  END
>  <shape_align_shape_tanimoto>  (1) 
0.75390433730076345

>  <shape_align_color_tanimoto>  (1) 
0.069297152218550803

>  <metric>  (1) 
shape

>  <metric_score>  (1) 
0.754

>  <template_pid>  (1) 
6MOA

>  <template_shape_score>  (1) 
0.754

>  <template_color_score>  (1) 
0.069

>  <template_combo_score>  (1) 
0.412

$$$$
6MOA_color_pose
     RDKit          3D

 30 35  0  0  0  0  0  0  0  0999 V2000
   12.8895   15.3922   20.4834 C   0  0  0  0  0  0  0  0  0  0  0  0
   13.0572   14.4637   21.6125 C   0  0  0  0  0  0  0  0  0  0  0  0
   13.2460   14.8605   22.9220 C   0  0  0  0  0  0  0  0  0  0  0  0
   13.4018   13.9969   23.9707 C   0  0  0  0  0  0  0  0  0  0  0  0
   13.3658   12.6316   23.6872 C   0  0  0  0  0  0  0  0  0  0  0  0
   13.5176   11.7401   24.7077 N   0  0  0  0  0  0  0  0  0  0  0  0
   13.4839   10.4346   24.4419 C   0  0  0  0  0  0  0  0  0  0  0  0
   13.3026    9.9095   23.1801 C   0  0  0  0  0  0  0  0  0  0  0  0
   13.1493   10.8309   22.1498 C   0  0  0  0  0  0  0  0  0  0  0  0
   13.1771   12.1877   22.3768 C   0  0  0  0  0  0  0  0  0  0  0  0
   13.0216   13.1023   21.3315 C   0  0  0  0  0  0  0  0  0  0  0  0
   12.8241   12.6278   19.9599 C   0  0  0  0  0  0  0  0  0  0  0  0
   13.8723   12.3908   19.0945 C   0  0  0  0  0  0  0  0  0  0  0  0
   13.6171   11.9381   17.7960 C   0  0  0  0  0  0  0  0  0  0  0  0
   14.7903   11.7168   16.9575 C   0  0  0  0  0  0  0  0  0  0  0  0
   15.3455   12.6938   16.1496 C   0  0  0  0  0  0  0  0  0  0  0  0
   14.8975   14.0997   15.9677 C   0  0  0  0  0  0  0  0  0  0  0  0
   16.4026   12.0666   15.5568 N   0  0  0  0  0  0  0  0  0  0  0  0
   16.4714   10.8366   15.9700 O   0  0  0  0  0  0  0  0  0  0  0  0
   15.5339   10.5391   16.8202 C   0  0  0  0  0  0  0  0  0  0  0  0
   15.2623    9.2562   17.5213 C   0  0  0  0  0  0  0  0  0  0  0  0
   12.3238   11.7184   17.3497 C   0  0  0  0  0  0  0  0  0  0  0  0
   11.2614   11.9590   18.2280 C   0  0  0  0  0  0  0  0  0  0  0  0
    9.9264   11.8449   18.1002 N   0  0  0  0  0  0  0  0  0  0  0  0
    9.3509   12.2070   19.2613 C   0  0  0  0  0  0  0  0  0  0  0  0
    7.9092   12.2543   19.6274 C   0  0  0  0  0  0  0  0  0  0  0  0
    7.5558   12.0139   21.0822 C   0  0  0  0  0  0  0  0  0  0  0  0
    7.4934   13.3941   20.4894 C   0  0  0  0  0  0  0  0  0  0  0  0
   10.3410   12.5447   20.1041 N   0  0  0  0  0  0  0  0  0  0  0  0
   11.5397   12.4058   19.5052 C   0  0  0  0  0  0  0  0  0  0  0  0
  1  2  1  0
  2  3  2  0
  3  4  1  0
  4  5  2  0
  5  6  1  0
  6  7  2  0
  7  8  1  0
  8  9  2  0
  9 10  1  0
 10 11  2  0
 11 12  1  0
 12 13  2  0
 13 14  1  0
 14 15  1  0
 15 16  1  0
 16 17  1  0
 16 18  2  0
 18 19  1  0
 19 20  1  0
 20 21  1  0
 14 22  2  0
 22 23  1  0
 23 24  1  0
 24 25  1  0
 25 26  1  0
 26 27  1  0
 27 28  1  0
 25 29  2  0
 29 30  1  0
 11  2  1  0
 30 12  1  0
 10  5  1  0
 20 15  2  0
 30 23  2  0
 28 26  1  0
M  END
>  <shape_align_shape_tanimoto>  (2) 
0.64506432148245263

>  <shape_align_color_tanimoto>  (2) 
0.11785204558454973

>  <metric>  (2) 
color

>  <metric_score>  (2) 
0.118

>  <template_pid>  (2) 
6MOA

>  <template_shape_score>  (2) 
0.645

>  <template_color_score>  (2) 
0.118

>  <template_combo_score>  (2) 
0.381

$$$$
6MOA_combo_pose
     RDKit          3D

 30 35  0  0  0  0  0  0  0  0999 V2000
   13.3520   14.9188   18.2103 C   0  0  0  0  0  0  0  0  0  0  0  0
   14.0095   13.7518   17.5535 C   0  0  0  0  0  0  0  0  0  0  0  0
   14.8680   13.9877   16.5066 C   0  0  0  0  0  0  0  0  0  0  0  0
   15.4922   12.9321   15.8775 C   0  0  0  0  0  0  0  0  0  0  0  0
   15.2287   11.6513   16.3288 C   0  0  0  0  0  0  0  0  0  0  0  0
   15.8453   10.6323   15.7047 N   0  0  0  0  0  0  0  0  0  0  0  0
   15.6069    9.3707   16.1241 C   0  0  0  0  0  0  0  0  0  0  0  0
   14.7441    9.0962   17.1803 C   0  0  0  0  0  0  0  0  0  0  0  0
   14.1000   10.1239   17.8362 C   0  0  0  0  0  0  0  0  0  0  0  0
   14.3664   11.4080   17.3811 C   0  0  0  0  0  0  0  0  0  0  0  0
   13.7433   12.4594   18.0094 C   0  0  0  0  0  0  0  0  0  0  0  0
   12.8257   12.3247   19.1158 C   0  0  0  0  0  0  0  0  0  0  0  0
   13.2696   12.3387   20.4349 C   0  0  0  0  0  0  0  0  0  0  0  0
   12.4032   12.2109   21.5008 C   0  0  0  0  0  0  0  0  0  0  0  0
   12.9472   12.2356   22.8455 C   0  0  0  0  0  0  0  0  0  0  0  0
   13.1460   13.3251   23.6682 C   0  0  0  0  0  0  0  0  0  0  0  0
   12.8334   14.7530   23.3384 C   0  0  0  0  0  0  0  0  0  0  0  0
   13.6730   12.8389   24.8141 N   0  0  0  0  0  0  0  0  0  0  0  0
   13.8087   11.5437   24.7502 O   0  0  0  0  0  0  0  0  0  0  0  0
   13.3851   11.1351   23.5839 C   0  0  0  0  0  0  0  0  0  0  0  0
   13.3494    9.7441   23.0692 C   0  0  0  0  0  0  0  0  0  0  0  0
   11.0486   12.0628   21.2898 C   0  0  0  0  0  0  0  0  0  0  0  0
   10.5874   12.0465   19.9833 C   0  0  0  0  0  0  0  0  0  0  0  0
    9.3229   11.9161   19.5034 N   0  0  0  0  0  0  0  0  0  0  0  0
    9.4102   11.9629   18.1648 C   0  0  0  0  0  0  0  0  0  0  0  0
    8.2288   11.8538   17.2549 C   0  0  0  0  0  0  0  0  0  0  0  0
    8.2632   12.3508   15.8722 C   0  0  0  0  0  0  0  0  0  0  0  0
    8.4270   10.8916   16.0368 C   0  0  0  0  0  0  0  0  0  0  0  0
   10.6921   12.1189   17.7880 N   0  0  0  0  0  0  0  0  0  0  0  0
   11.4707   12.1765   18.9073 C   0  0  0  0  0  0  0  0  0  0  0  0
  1  2  1  0
  2  3  2  0
  3  4  1  0
  4  5  2  0
  5  6  1  0
  6  7  2  0
  7  8  1  0
  8  9  2  0
  9 10  1  0
 10 11  2  0
 11 12  1  0
 12 13  2  0
 13 14  1  0
 14 15  1  0
 15 16  1  0
 16 17  1  0
 16 18  2  0
 18 19  1  0
 19 20  1  0
 20 21  1  0
 14 22  2  0
 22 23  1  0
 23 24  1  0
 24 25  1  0
 25 26  1  0
 26 27  1  0
 27 28  1  0
 25 29  2  0
 29 30  1  0
 11  2  1  0
 30 12  1  0
 10  5  1  0
 20 15  2  0
 30 23  2  0
 28 26  1  0
M  END
>  <shape_align_shape_tanimoto>  (3) 
0.74938578518518673

>  <shape_align_color_tanimoto>  (3) 
0.082086605506625818

>  <metric>  (3) 
combo

>  <metric_score>  (3) 
0.416

>  <template_pid>  (3) 
6MOA

>  <template_shape_score>  (3) 
0.749

>  <template_color_score>  (3) 
0.082

>  <template_combo_score>  (3) 
0.416

$$$$
