6OIO_shape_pose
     RDKit          3D

 25 27  0  0  0  0  0  0  0  0999 V2000
   -4.0576   30.0298   76.4898 O   0  0  0  0  0  0  0  0  0  0  0  0
   -3.0056   30.0973   75.7682 C   0  0  0  0  0  0  0  0  0  0  0  0
   -3.2009   30.1054   74.3568 N   0  0  0  0  0  0  0  0  0  0  0  0
   -4.4661   30.0419   73.7795 N   0  0  0  0  0  0  0  0  0  0  0  0
   -4.8794   28.3919   73.4903 S   0  0  0  0  0  0  0  0  0  0  0  0
   -3.7709   27.7246   72.6931 O   0  0  0  0  0  0  0  0  0  0  0  0
   -6.1918   28.2580   72.8012 O   0  0  0  0  0  0  0  0  0  0  0  0
   -4.9100   27.5754   75.0362 C   0  0  0  0  0  0  0  0  0  0  0  0
   -3.7699   26.9454   75.5463 C   0  0  0  0  0  0  0  0  0  0  0  0
   -3.8578   26.3118   76.7832 C   0  0  0  0  0  0  0  0  0  0  0  0
   -5.0420   26.2951   77.5091 C   0  0  0  0  0  0  0  0  0  0  0  0
   -6.1602   26.9224   76.9913 C   0  0  0  0  0  0  0  0  0  0  0  0
   -6.1011   27.5646   75.7551 C   0  0  0  0  0  0  0  0  0  0  0  0
   -1.6840   30.1619   76.3791 C   0  0  0  0  0  0  0  0  0  0  0  0
   -0.5142   30.2348   75.6516 C   0  0  0  0  0  0  0  0  0  0  0  0
    0.7213   30.2944   76.2921 C   0  0  0  0  0  0  0  0  0  0  0  0
    0.8028   30.2815   77.6900 C   0  0  0  0  0  0  0  0  0  0  0  0
   -0.3761   30.2081   78.4085 C   0  0  0  0  0  0  0  0  0  0  0  0
   -0.4046   30.1885   79.8686 C   0  0  0  0  0  0  0  0  0  0  0  0
   -1.4416   30.7219   80.6052 C   0  0  0  0  0  0  0  0  0  0  0  0
   -1.4542   30.6957   81.9933 C   0  0  0  0  0  0  0  0  0  0  0  0
   -0.3917   30.1149   82.6908 C   0  0  0  0  0  0  0  0  0  0  0  0
    0.6389   29.5853   81.9399 C   0  0  0  0  0  0  0  0  0  0  0  0
    0.6595   29.6070   80.5609 C   0  0  0  0  0  0  0  0  0  0  0  0
   -1.5835   30.1504   77.7427 C   0  0  0  0  0  0  0  0  0  0  0  0
  1  2  2  0
  2  3  1  0
  3  4  1  0
  4  5  1  0
  5  6  2  0
  5  7  2  0
  5  8  1  0
  8  9  2  0
  9 10  1  0
 10 11  2  0
 11 12  1  0
 12 13  2  0
  2 14  1  0
 14 15  2  0
 15 16  1  0
 16 17  2  0
 17 18  1  0
 18 19  1  0
 19 20  2  0
 20 21  1  0
 21 22  2  0
 22 23  1  0
 23 24  2  0
 18 25  2  0
 13  8  1  0
 25 14  1  0
 24 19  1  0
M  END
>  <shape_align_shape_tanimoto>  (1) 
0.61666743226273935

>  <shape_align_color_tanimoto>  (1) 
0.056489509105722702

>  <metric>  (1) 
shape

>  <metric_score>  (1) 
0.617

>  <template_pid>  (1) 
6OIO

>  <template_shape_score>  (1) 
0.617

>  <template_color_score>  (1) 
0.056

>  <template_combo_score>  (1) 
0.337

$$$$
6OIO_color_pose
     RDKit          3D

 25 27  0  0  0  0  0  0  0  0999 V2000
   -0.4566   30.5331   74.0206 O   0  0  0  0  0  0  0  0  0  0  0  0
   -0.9874   30.3815   75.1635 C   0  0  0  0  0  0  0  0  0  0  0  0
   -2.3796   30.1811   75.2629 N   0  0  0  0  0  0  0  0  0  0  0  0
   -3.1587   30.1495   74.1331 N   0  0  0  0  0  0  0  0  0  0  0  0
   -4.8038   29.8881   74.5873 S   0  0  0  0  0  0  0  0  0  0  0  0
   -5.7289   29.9502   73.3967 O   0  0  0  0  0  0  0  0  0  0  0  0
   -5.2415   30.9171   75.6175 O   0  0  0  0  0  0  0  0  0  0  0  0
   -4.9390   28.3378   75.4011 C   0  0  0  0  0  0  0  0  0  0  0  0
   -5.1839   27.2357   74.5972 C   0  0  0  0  0  0  0  0  0  0  0  0
   -5.3086   25.9607   75.1499 C   0  0  0  0  0  0  0  0  0  0  0  0
   -5.1787   25.8355   76.5338 C   0  0  0  0  0  0  0  0  0  0  0  0
   -4.9355   26.9282   77.3347 C   0  0  0  0  0  0  0  0  0  0  0  0
   -4.8140   28.1962   76.7616 C   0  0  0  0  0  0  0  0  0  0  0  0
   -0.0897   30.4275   76.3203 C   0  0  0  0  0  0  0  0  0  0  0  0
    1.2542   30.6312   76.0825 C   0  0  0  0  0  0  0  0  0  0  0  0
    2.1829   30.6886   77.1262 C   0  0  0  0  0  0  0  0  0  0  0  0
    1.7372   30.5360   78.4391 C   0  0  0  0  0  0  0  0  0  0  0  0
    0.3907   30.3326   78.6677 C   0  0  0  0  0  0  0  0  0  0  0  0
   -0.1383   30.1649   80.0291 C   0  0  0  0  0  0  0  0  0  0  0  0
   -1.4313   30.5996   80.3235 C   0  0  0  0  0  0  0  0  0  0  0  0
   -1.9784   30.4670   81.5837 C   0  0  0  0  0  0  0  0  0  0  0  0
   -1.2046   29.8860   82.5581 C   0  0  0  0  0  0  0  0  0  0  0  0
    0.0825   29.4392   82.3153 C   0  0  0  0  0  0  0  0  0  0  0  0
    0.6196   29.5808   81.0378 C   0  0  0  0  0  0  0  0  0  0  0  0
   -0.5144   30.2797   77.6062 C   0  0  0  0  0  0  0  0  0  0  0  0
  1  2  2  0
  2  3  1  0
  3  4  1  0
  4  5  1  0
  5  6  2  0
  5  7  2  0
  5  8  1  0
  8  9  2  0
  9 10  1  0
 10 11  2  0
 11 12  1  0
 12 13  2  0
  2 14  1  0
 14 15  2  0
 15 16  1  0
 16 17  2  0
 17 18  1  0
 18 19  1  0
 19 20  2  0
 20 21  1  0
 21 22  2  0
 22 23  1  0
 23 24  2  0
 18 25  2  0
 13  8  1  0
 25 14  1  0
 24 19  1  0
M  END
>  <shape_align_shape_tanimoto>  (2) 
0.54579041328000244

>  <shape_align_color_tanimoto>  (2) 
0.089391812421450625

>  <metric>  (2) 
color

>  <metric_score>  (2) 
0.089

>  <template_pid>  (2) 
6OIO

>  <template_shape_score>  (2) 
0.546

>  <template_color_score>  (2) 
0.089

>  <template_combo_score>  (2) 
0.318

$$$$
6OIO_combo_pose
     RDKit          3D

 25 27  0  0  0  0  0  0  0  0999 V2000
   -4.0390   30.0809   76.4572 O   0  0  0  0  0  0  0  0  0  0  0  0
   -2.9746   30.1283   75.7493 C   0  0  0  0  0  0  0  0  0  0  0  0
   -3.1518   30.1376   74.3383 N   0  0  0  0  0  0  0  0  0  0  0  0
   -4.4439   30.0958   73.8016 N   0  0  0  0  0  0  0  0  0  0  0  0
   -4.8626   28.4342   73.5796 S   0  0  0  0  0  0  0  0  0  0  0  0
   -3.8135   27.7667   72.7247 O   0  0  0  0  0  0  0  0  0  0  0  0
   -6.1942   28.2981   72.9071 O   0  0  0  0  0  0  0  0  0  0  0  0
   -4.8699   27.5779   75.1098 C   0  0  0  0  0  0  0  0  0  0  0  0
   -6.0614   27.5560   75.8042 C   0  0  0  0  0  0  0  0  0  0  0  0
   -6.1361   26.8971   77.0194 C   0  0  0  0  0  0  0  0  0  0  0  0
   -4.9994   26.2808   77.4922 C   0  0  0  0  0  0  0  0  0  0  0  0
   -3.8134   26.3047   76.7974 C   0  0  0  0  0  0  0  0  0  0  0  0
   -3.7339   26.9641   75.5787 C   0  0  0  0  0  0  0  0  0  0  0  0
   -1.6623   30.1695   76.3888 C   0  0  0  0  0  0  0  0  0  0  0  0
   -0.4795   30.2211   75.6815 C   0  0  0  0  0  0  0  0  0  0  0  0
    0.7209   30.2575   76.3616 C   0  0  0  0  0  0  0  0  0  0  0  0
    0.7940   30.2445   77.7465 C   0  0  0  0  0  0  0  0  0  0  0  0
   -0.3983   30.1927   78.4534 C   0  0  0  0  0  0  0  0  0  0  0  0
   -0.4072   30.1751   79.9304 C   0  0  0  0  0  0  0  0  0  0  0  0
   -1.4604   30.7489   80.6380 C   0  0  0  0  0  0  0  0  0  0  0  0
   -1.4874   30.7426   82.0229 C   0  0  0  0  0  0  0  0  0  0  0  0
   -0.4252   30.1427   82.6689 C   0  0  0  0  0  0  0  0  0  0  0  0
    0.6353   29.5636   82.0339 C   0  0  0  0  0  0  0  0  0  0  0  0
    0.6309   29.5876   80.6415 C   0  0  0  0  0  0  0  0  0  0  0  0
   -1.5862   30.1569   77.7522 C   0  0  0  0  0  0  0  0  0  0  0  0
  1  2  2  0
  2  3  1  0
  3  4  1  0
  4  5  1  0
  5  6  2  0
  5  7  2  0
  5  8  1  0
  8  9  2  0
  9 10  1  0
 10 11  2  0
 11 12  1  0
 12 13  2  0
  2 14  1  0
 14 15  2  0
 15 16  1  0
 16 17  2  0
 17 18  1  0
 18 19  1  0
 19 20  2  0
 20 21  1  0
 21 22  2  0
 22 23  1  0
 23 24  2  0
 18 25  2  0
 13  8  1  0
 25 14  1  0
 24 19  1  0
M  END
>  <shape_align_shape_tanimoto>  (3) 
0.61633451373931569

>  <shape_align_color_tanimoto>  (3) 
0.056975517608209347

>  <metric>  (3) 
combo

>  <metric_score>  (3) 
0.337

>  <template_pid>  (3) 
6OIO

>  <template_shape_score>  (3) 
0.616

>  <template_color_score>  (3) 
0.057

>  <template_combo_score>  (3) 
0.337

$$$$
