6OXQ_shape_pose
     RDKit          3D

 41 44  0  0  0  0  0  0  0  0999 V2000
   20.6511   35.4437   17.3887 C   0  0  0  0  0  0  0  0  0  0  0  0
   21.6733   34.3264   17.3439 C   0  0  0  0  0  0  0  0  0  0  0  0
   21.1839   33.2931   16.3186 C   0  0  0  0  0  0  0  0  0  0  0  0
   22.2379   32.1996   16.3116 C   0  0  0  0  0  0  0  0  0  0  0  0
   23.5928   32.7403   15.9151 C   0  0  0  0  0  0  0  0  0  0  0  0
   19.8860   32.6596   16.7627 C   0  0  0  0  0  0  0  0  0  0  0  0
   19.3542   31.6863   15.8649 N   0  0  0  0  0  0  0  0  0  0  0  0
   19.1000   30.4104   16.4082 C   0  0  0  0  0  0  0  0  0  0  0  0
   19.8014   29.2408   15.8618 C   0  0  1  0  0  0  0  0  0  0  0  0
   19.4461   28.0904   16.6284 O   0  0  0  0  0  0  0  0  0  0  0  0
   19.6183   28.9081   14.4003 C   0  0  2  0  0  0  0  0  0  0  0  0
   18.2479   28.1941   14.2980 C   0  0  0  0  0  0  0  0  0  0  0  0
   17.9133   27.7703   12.9480 C   0  0  0  0  0  0  0  0  0  0  0  0
   18.3597   26.5002   12.5465 C   0  0  0  0  0  0  0  0  0  0  0  0
   18.0982   25.9844   11.3097 C   0  0  0  0  0  0  0  0  0  0  0  0
   17.3692   26.7010   10.3775 C   0  0  0  0  0  0  0  0  0  0  0  0
   16.9214   27.9461   10.7442 C   0  0  0  0  0  0  0  0  0  0  0  0
   17.1937   28.4655   12.0130 C   0  0  0  0  0  0  0  0  0  0  0  0
   20.5693   27.8332   14.0237 N   0  0  0  0  0  0  0  0  0  0  0  0
   21.3912   28.0946   12.9115 C   0  0  0  0  0  0  0  0  0  0  0  0
   21.3300   29.1891   12.2559 O   0  0  0  0  0  0  0  0  0  0  0  0
   22.3405   27.1828   12.4298 O   0  0  0  0  0  0  0  0  0  0  0  0
   23.1316   27.5106   11.3050 C   0  0  1  0  0  0  0  0  0  0  0  0
   24.5805   27.3548   11.7021 C   0  0  0  0  0  0  0  0  0  0  0  0
   24.9299   26.0385   11.5428 O   0  0  0  0  0  0  0  0  0  0  0  0
   23.9419   25.3859   10.8516 C   0  0  1  0  0  0  0  0  0  0  0  0
   23.1961   24.6688   11.7792 O   0  0  0  0  0  0  0  0  0  0  0  0
   21.9176   24.5432   11.2607 C   0  0  0  0  0  0  0  0  0  0  0  0
   21.6496   25.7231   10.3937 C   0  0  0  0  0  0  0  0  0  0  0  0
   22.9948   26.3991   10.2872 C   0  0  1  0  0  0  0  0  0  0  0  0
   18.2093   32.3124   14.7758 S   0  0  0  0  0  0  0  0  0  0  0  0
   17.1276   33.0501   15.5708 O   0  0  0  0  0  0  0  0  0  0  0  0
   17.4935   31.3265   13.9526 O   0  0  0  0  0  0  0  0  0  0  0  0
   18.9092   33.5500   13.7377 C   0  0  0  0  0  0  0  0  0  0  0  0
   19.5662   33.1421   12.5951 C   0  0  0  0  0  0  0  0  0  0  0  0
   20.1247   34.1028   11.7629 C   0  0  0  0  0  0  0  0  0  0  0  0
   20.0283   35.4386   12.0660 C   0  0  0  0  0  0  0  0  0  0  0  0
   20.6153   36.5124   11.2101 C   0  0  0  0  0  0  0  0  0  0  0  0
   21.9113   36.7284   11.6824 O   0  0  0  0  0  0  0  0  0  0  0  0
   19.3692   35.8331   13.2088 C   0  0  0  0  0  0  0  0  0  0  0  0
   18.8023   34.9094   14.0596 C   0  0  0  0  0  0  0  0  0  0  0  0
  1  2  1  0
  2  3  1  0
  3  4  1  0
  4  5  1  0
  3  6  1  0
  6  7  1  0
  7  8  1  0
  8  9  1  0
  9 10  1  1
  9 11  1  0
 11 12  1  1
 12 13  1  0
 13 14  2  0
 14 15  1  0
 15 16  2  0
 16 17  1  0
 17 18  2  0
 11 19  1  0
 19 20  1  0
 20 21  2  0
 20 22  1  0
 23 22  1  1
 23 24  1  0
 24 25  1  0
 26 25  1  1
 26 27  1  0
 27 28  1  0
 28 29  1  0
 30 29  1  1
  7 31  1  0
 31 32  2  0
 31 33  2  0
 31 34  1  0
 34 35  2  0
 35 36  1  0
 36 37  2  0
 37 38  1  0
 38 39  1  0
 37 40  1  0
 40 41  2  0
 18 13  1  0
 30 23  1  0
 41 34  1  0
 30 26  1  0
M  END
>  <shape_align_shape_tanimoto>  (1) 
0.62369693171469298

>  <shape_align_color_tanimoto>  (1) 
0.14655072977279018

>  <metric>  (1) 
shape

>  <metric_score>  (1) 
0.624

>  <template_pid>  (1) 
6OXQ

>  <template_shape_score>  (1) 
0.624

>  <template_color_score>  (1) 
0.147

>  <template_combo_score>  (1) 
0.385

$$$$
6OXQ_color_pose
     RDKit          3D

 41 44  0  0  0  0  0  0  0  0999 V2000
   20.6511   35.4437   17.3887 C   0  0  0  0  0  0  0  0  0  0  0  0
   21.6733   34.3264   17.3439 C   0  0  0  0  0  0  0  0  0  0  0  0
   21.1839   33.2931   16.3186 C   0  0  0  0  0  0  0  0  0  0  0  0
   22.2379   32.1996   16.3116 C   0  0  0  0  0  0  0  0  0  0  0  0
   23.5928   32.7403   15.9151 C   0  0  0  0  0  0  0  0  0  0  0  0
   19.8860   32.6596   16.7627 C   0  0  0  0  0  0  0  0  0  0  0  0
   19.3542   31.6863   15.8649 N   0  0  0  0  0  0  0  0  0  0  0  0
   19.1000   30.4104   16.4082 C   0  0  0  0  0  0  0  0  0  0  0  0
   19.8014   29.2408   15.8618 C   0  0  1  0  0  0  0  0  0  0  0  0
   19.4461   28.0904   16.6284 O   0  0  0  0  0  0  0  0  0  0  0  0
   19.6183   28.9081   14.4003 C   0  0  2  0  0  0  0  0  0  0  0  0
   18.2479   28.1941   14.2980 C   0  0  0  0  0  0  0  0  0  0  0  0
   17.9133   27.7703   12.9480 C   0  0  0  0  0  0  0  0  0  0  0  0
   18.3597   26.5002   12.5465 C   0  0  0  0  0  0  0  0  0  0  0  0
   18.0982   25.9844   11.3097 C   0  0  0  0  0  0  0  0  0  0  0  0
   17.3692   26.7010   10.3775 C   0  0  0  0  0  0  0  0  0  0  0  0
   16.9214   27.9461   10.7442 C   0  0  0  0  0  0  0  0  0  0  0  0
   17.1937   28.4655   12.0130 C   0  0  0  0  0  0  0  0  0  0  0  0
   20.5693   27.8332   14.0237 N   0  0  0  0  0  0  0  0  0  0  0  0
   21.3912   28.0946   12.9115 C   0  0  0  0  0  0  0  0  0  0  0  0
   21.3300   29.1891   12.2559 O   0  0  0  0  0  0  0  0  0  0  0  0
   22.3405   27.1828   12.4298 O   0  0  0  0  0  0  0  0  0  0  0  0
   23.1316   27.5106   11.3050 C   0  0  1  0  0  0  0  0  0  0  0  0
   24.5805   27.3548   11.7021 C   0  0  0  0  0  0  0  0  0  0  0  0
   24.9299   26.0385   11.5428 O   0  0  0  0  0  0  0  0  0  0  0  0
   23.9419   25.3859   10.8516 C   0  0  1  0  0  0  0  0  0  0  0  0
   23.1961   24.6688   11.7792 O   0  0  0  0  0  0  0  0  0  0  0  0
   21.9176   24.5432   11.2607 C   0  0  0  0  0  0  0  0  0  0  0  0
   21.6496   25.7231   10.3937 C   0  0  0  0  0  0  0  0  0  0  0  0
   22.9948   26.3991   10.2872 C   0  0  1  0  0  0  0  0  0  0  0  0
   18.2093   32.3124   14.7758 S   0  0  0  0  0  0  0  0  0  0  0  0
   17.1276   33.0501   15.5708 O   0  0  0  0  0  0  0  0  0  0  0  0
   17.4935   31.3265   13.9526 O   0  0  0  0  0  0  0  0  0  0  0  0
   18.9092   33.5500   13.7377 C   0  0  0  0  0  0  0  0  0  0  0  0
   19.5662   33.1421   12.5951 C   0  0  0  0  0  0  0  0  0  0  0  0
   20.1247   34.1028   11.7629 C   0  0  0  0  0  0  0  0  0  0  0  0
   20.0283   35.4386   12.0660 C   0  0  0  0  0  0  0  0  0  0  0  0
   20.6153   36.5124   11.2101 C   0  0  0  0  0  0  0  0  0  0  0  0
   21.9113   36.7284   11.6824 O   0  0  0  0  0  0  0  0  0  0  0  0
   19.3692   35.8331   13.2088 C   0  0  0  0  0  0  0  0  0  0  0  0
   18.8023   34.9094   14.0596 C   0  0  0  0  0  0  0  0  0  0  0  0
  1  2  1  0
  2  3  1  0
  3  4  1  0
  4  5  1  0
  3  6  1  0
  6  7  1  0
  7  8  1  0
  8  9  1  0
  9 10  1  1
  9 11  1  0
 11 12  1  1
 12 13  1  0
 13 14  2  0
 14 15  1  0
 15 16  2  0
 16 17  1  0
 17 18  2  0
 11 19  1  0
 19 20  1  0
 20 21  2  0
 20 22  1  0
 23 22  1  1
 23 24  1  0
 24 25  1  0
 26 25  1  1
 26 27  1  0
 27 28  1  0
 28 29  1  0
 30 29  1  1
  7 31  1  0
 31 32  2  0
 31 33  2  0
 31 34  1  0
 34 35  2  0
 35 36  1  0
 36 37  2  0
 37 38  1  0
 38 39  1  0
 37 40  1  0
 40 41  2  0
 18 13  1  0
 30 23  1  0
 41 34  1  0
 30 26  1  0
M  END
>  <shape_align_shape_tanimoto>  (2) 
0.62369693171469298

>  <shape_align_color_tanimoto>  (2) 
0.14655072977279018

>  <metric>  (2) 
color

>  <metric_score>  (2) 
0.147

>  <template_pid>  (2) 
6OXQ

>  <template_shape_score>  (2) 
0.624

>  <template_color_score>  (2) 
0.147

>  <template_combo_score>  (2) 
0.385

$$$$
6OXQ_combo_pose
     RDKit          3D

 41 44  0  0  0  0  0  0  0  0999 V2000
   20.6511   35.4437   17.3887 C   0  0  0  0  0  0  0  0  0  0  0  0
   21.6733   34.3264   17.3439 C   0  0  0  0  0  0  0  0  0  0  0  0
   21.1839   33.2931   16.3186 C   0  0  0  0  0  0  0  0  0  0  0  0
   22.2379   32.1996   16.3116 C   0  0  0  0  0  0  0  0  0  0  0  0
   23.5928   32.7403   15.9151 C   0  0  0  0  0  0  0  0  0  0  0  0
   19.8860   32.6596   16.7627 C   0  0  0  0  0  0  0  0  0  0  0  0
   19.3542   31.6863   15.8649 N   0  0  0  0  0  0  0  0  0  0  0  0
   19.1000   30.4104   16.4082 C   0  0  0  0  0  0  0  0  0  0  0  0
   19.8014   29.2408   15.8618 C   0  0  1  0  0  0  0  0  0  0  0  0
   19.4461   28.0904   16.6284 O   0  0  0  0  0  0  0  0  0  0  0  0
   19.6183   28.9081   14.4003 C   0  0  2  0  0  0  0  0  0  0  0  0
   18.2479   28.1941   14.2980 C   0  0  0  0  0  0  0  0  0  0  0  0
   17.9133   27.7703   12.9480 C   0  0  0  0  0  0  0  0  0  0  0  0
   18.3597   26.5002   12.5465 C   0  0  0  0  0  0  0  0  0  0  0  0
   18.0982   25.9844   11.3097 C   0  0  0  0  0  0  0  0  0  0  0  0
   17.3692   26.7010   10.3775 C   0  0  0  0  0  0  0  0  0  0  0  0
   16.9214   27.9461   10.7442 C   0  0  0  0  0  0  0  0  0  0  0  0
   17.1937   28.4655   12.0130 C   0  0  0  0  0  0  0  0  0  0  0  0
   20.5693   27.8332   14.0237 N   0  0  0  0  0  0  0  0  0  0  0  0
   21.3912   28.0946   12.9115 C   0  0  0  0  0  0  0  0  0  0  0  0
   21.3300   29.1891   12.2559 O   0  0  0  0  0  0  0  0  0  0  0  0
   22.3405   27.1828   12.4298 O   0  0  0  0  0  0  0  0  0  0  0  0
   23.1316   27.5106   11.3050 C   0  0  1  0  0  0  0  0  0  0  0  0
   24.5805   27.3548   11.7021 C   0  0  0  0  0  0  0  0  0  0  0  0
   24.9299   26.0385   11.5428 O   0  0  0  0  0  0  0  0  0  0  0  0
   23.9419   25.3859   10.8516 C   0  0  1  0  0  0  0  0  0  0  0  0
   23.1961   24.6688   11.7792 O   0  0  0  0  0  0  0  0  0  0  0  0
   21.9176   24.5432   11.2607 C   0  0  0  0  0  0  0  0  0  0  0  0
   21.6496   25.7231   10.3937 C   0  0  0  0  0  0  0  0  0  0  0  0
   22.9948   26.3991   10.2872 C   0  0  1  0  0  0  0  0  0  0  0  0
   18.2093   32.3124   14.7758 S   0  0  0  0  0  0  0  0  0  0  0  0
   17.1276   33.0501   15.5708 O   0  0  0  0  0  0  0  0  0  0  0  0
   17.4935   31.3265   13.9526 O   0  0  0  0  0  0  0  0  0  0  0  0
   18.9092   33.5500   13.7377 C   0  0  0  0  0  0  0  0  0  0  0  0
   19.5662   33.1421   12.5951 C   0  0  0  0  0  0  0  0  0  0  0  0
   20.1247   34.1028   11.7629 C   0  0  0  0  0  0  0  0  0  0  0  0
   20.0283   35.4386   12.0660 C   0  0  0  0  0  0  0  0  0  0  0  0
   20.6153   36.5124   11.2101 C   0  0  0  0  0  0  0  0  0  0  0  0
   21.9113   36.7284   11.6824 O   0  0  0  0  0  0  0  0  0  0  0  0
   19.3692   35.8331   13.2088 C   0  0  0  0  0  0  0  0  0  0  0  0
   18.8023   34.9094   14.0596 C   0  0  0  0  0  0  0  0  0  0  0  0
  1  2  1  0
  2  3  1  0
  3  4  1  0
  4  5  1  0
  3  6  1  0
  6  7  1  0
  7  8  1  0
  8  9  1  0
  9 10  1  1
  9 11  1  0
 11 12  1  1
 12 13  1  0
 13 14  2  0
 14 15  1  0
 15 16  2  0
 16 17  1  0
 17 18  2  0
 11 19  1  0
 19 20  1  0
 20 21  2  0
 20 22  1  0
 23 22  1  1
 23 24  1  0
 24 25  1  0
 26 25  1  1
 26 27  1  0
 27 28  1  0
 28 29  1  0
 30 29  1  1
  7 31  1  0
 31 32  2  0
 31 33  2  0
 31 34  1  0
 34 35  2  0
 35 36  1  0
 36 37  2  0
 37 38  1  0
 38 39  1  0
 37 40  1  0
 40 41  2  0
 18 13  1  0
 30 23  1  0
 41 34  1  0
 30 26  1  0
M  END
>  <shape_align_shape_tanimoto>  (3) 
0.62369693171469298

>  <shape_align_color_tanimoto>  (3) 
0.14655072977279018

>  <metric>  (3) 
combo

>  <metric_score>  (3) 
0.385

>  <template_pid>  (3) 
6OXQ

>  <template_shape_score>  (3) 
0.624

>  <template_color_score>  (3) 
0.147

>  <template_combo_score>  (3) 
0.385

$$$$
