4MJR_shape_pose
     RDKit          3D

 19 21  0  0  0  0  0  0  0  0999 V2000
  -12.1590   34.0304   51.0691 C   0  0  0  0  0  0  0  0  0  0  0  0
  -12.1599   33.2525   52.3690 C   0  0  2  0  0  0  0  0  0  0  0  0
  -12.0327   31.8150   52.0123 C   0  0  0  0  0  0  0  0  0  0  0  0
  -12.3071   31.3694   50.8590 O   0  0  0  0  0  0  0  0  0  0  0  0
  -11.5936   30.9095   52.9807 O   0  0  0  0  0  0  0  0  0  0  0  0
  -13.4381   33.5124   53.1206 C   0  0  0  0  0  0  0  0  0  0  0  0
  -14.6680   33.1161   52.5943 C   0  0  0  0  0  0  0  0  0  0  0  0
  -15.8441   33.3534   53.2821 C   0  0  0  0  0  0  0  0  0  0  0  0
  -15.7736   33.9997   54.5175 C   0  0  0  0  0  0  0  0  0  0  0  0
  -14.5712   34.4031   55.0628 C   0  0  0  0  0  0  0  0  0  0  0  0
  -13.4071   34.1563   54.3590 C   0  0  0  0  0  0  0  0  0  0  0  0
  -14.8161   34.9996   56.2634 N   0  0  0  0  0  0  0  0  0  0  0  0
  -16.1396   34.9930   56.5085 C   0  0  0  0  0  0  0  0  0  0  0  0
  -16.9308   35.4586   57.5625 C   0  0  0  0  0  0  0  0  0  0  0  0
  -18.3008   35.2991   57.5212 C   0  0  0  0  0  0  0  0  0  0  0  0
  -18.8822   34.6709   56.4204 C   0  0  0  0  0  0  0  0  0  0  0  0
  -20.6344   34.4482   56.3313 Cl  0  0  0  0  0  0  0  0  0  0  0  0
  -18.1284   34.2010   55.3653 C   0  0  0  0  0  0  0  0  0  0  0  0
  -16.7598   34.3684   55.4222 C   0  0  0  0  0  0  0  0  0  0  0  0
  2  1  1  6
  2  3  1  0
  3  4  2  0
  3  5  1  0
  2  6  1  0
  6  7  2  0
  7  8  1  0
  8  9  2  0
  9 10  1  0
 10 11  2  0
 10 12  1  0
 12 13  1  0
 13 14  2  0
 14 15  1  0
 15 16  2  0
 16 17  1  0
 16 18  1  0
 18 19  2  0
 11  6  1  0
 19 13  1  0
 19  9  1  0
M  CHG  1   5  -1
M  END
>  <shape_align_shape_tanimoto>  (1) 
0.4905325986170519

>  <shape_align_color_tanimoto>  (1) 
0.061794835653585047

>  <metric>  (1) 
shape

>  <metric_score>  (1) 
0.491

>  <template_pid>  (1) 
4MJR

>  <template_shape_score>  (1) 
0.491

>  <template_color_score>  (1) 
0.062

>  <template_combo_score>  (1) 
0.276

$$$$
4MJR_color_pose
     RDKit          3D

 19 21  0  0  0  0  0  0  0  0999 V2000
  -16.3792   36.1052   57.1140 C   0  0  0  0  0  0  0  0  0  0  0  0
  -17.0218   35.4782   55.8722 C   0  0  2  0  0  0  0  0  0  0  0  0
  -18.1726   34.6248   56.2691 C   0  0  0  0  0  0  0  0  0  0  0  0
  -18.9786   34.2258   55.4081 O   0  0  0  0  0  0  0  0  0  0  0  0
  -18.3093   34.2942   57.6299 O   0  0  0  0  0  0  0  0  0  0  0  0
  -15.9782   34.5862   55.3016 C   0  0  0  0  0  0  0  0  0  0  0  0
  -15.4895   33.5448   56.0746 C   0  0  0  0  0  0  0  0  0  0  0  0
  -14.5071   32.6850   55.5710 C   0  0  0  0  0  0  0  0  0  0  0  0
  -14.0342   32.9044   54.2725 C   0  0  0  0  0  0  0  0  0  0  0  0
  -14.5300   33.9515   53.5041 C   0  0  0  0  0  0  0  0  0  0  0  0
  -15.5071   34.8057   54.0066 C   0  0  0  0  0  0  0  0  0  0  0  0
  -13.9056   33.9315   52.3059 N   0  0  0  0  0  0  0  0  0  0  0  0
  -13.0229   32.8976   52.2894 C   0  0  0  0  0  0  0  0  0  0  0  0
  -12.1583   32.4677   51.3012 C   0  0  0  0  0  0  0  0  0  0  0  0
  -11.3681   31.3807   51.5555 C   0  0  0  0  0  0  0  0  0  0  0  0
  -11.4317   30.7220   52.7795 C   0  0  0  0  0  0  0  0  0  0  0  0
  -10.4170   29.3230   53.1115 Cl  0  0  0  0  0  0  0  0  0  0  0  0
  -12.2823   31.1433   53.7545 C   0  0  0  0  0  0  0  0  0  0  0  0
  -13.0897   32.2479   53.5046 C   0  0  0  0  0  0  0  0  0  0  0  0
  2  1  1  1
  2  3  1  0
  3  4  2  0
  3  5  1  0
  2  6  1  0
  6  7  2  0
  7  8  1  0
  8  9  2  0
  9 10  1  0
 10 11  2  0
 10 12  1  0
 12 13  1  0
 13 14  2  0
 14 15  1  0
 15 16  2  0
 16 17  1  0
 16 18  1  0
 18 19  2  0
 11  6  1  0
 19 13  1  0
 19  9  1  0
M  CHG  1   5  -1
M  END
>  <shape_align_shape_tanimoto>  (2) 
0.4451389713335186

>  <shape_align_color_tanimoto>  (2) 
0.072287453894925427

>  <metric>  (2) 
color

>  <metric_score>  (2) 
0.072

>  <template_pid>  (2) 
4MJR

>  <template_shape_score>  (2) 
0.445

>  <template_color_score>  (2) 
0.072

>  <template_combo_score>  (2) 
0.259

$$$$
4MJR_combo_pose
     RDKit          3D

 19 21  0  0  0  0  0  0  0  0999 V2000
  -12.1590   34.0304   51.0691 C   0  0  0  0  0  0  0  0  0  0  0  0
  -12.1599   33.2525   52.3690 C   0  0  2  0  0  0  0  0  0  0  0  0
  -12.0327   31.8150   52.0123 C   0  0  0  0  0  0  0  0  0  0  0  0
  -12.3071   31.3694   50.8590 O   0  0  0  0  0  0  0  0  0  0  0  0
  -11.5936   30.9095   52.9807 O   0  0  0  0  0  0  0  0  0  0  0  0
  -13.4381   33.5124   53.1206 C   0  0  0  0  0  0  0  0  0  0  0  0
  -14.6680   33.1161   52.5943 C   0  0  0  0  0  0  0  0  0  0  0  0
  -15.8441   33.3534   53.2821 C   0  0  0  0  0  0  0  0  0  0  0  0
  -15.7736   33.9997   54.5175 C   0  0  0  0  0  0  0  0  0  0  0  0
  -14.5712   34.4031   55.0628 C   0  0  0  0  0  0  0  0  0  0  0  0
  -13.4071   34.1563   54.3590 C   0  0  0  0  0  0  0  0  0  0  0  0
  -14.8161   34.9996   56.2634 N   0  0  0  0  0  0  0  0  0  0  0  0
  -16.1396   34.9930   56.5085 C   0  0  0  0  0  0  0  0  0  0  0  0
  -16.9308   35.4586   57.5625 C   0  0  0  0  0  0  0  0  0  0  0  0
  -18.3008   35.2991   57.5212 C   0  0  0  0  0  0  0  0  0  0  0  0
  -18.8822   34.6709   56.4204 C   0  0  0  0  0  0  0  0  0  0  0  0
  -20.6344   34.4482   56.3313 Cl  0  0  0  0  0  0  0  0  0  0  0  0
  -18.1284   34.2010   55.3653 C   0  0  0  0  0  0  0  0  0  0  0  0
  -16.7598   34.3684   55.4222 C   0  0  0  0  0  0  0  0  0  0  0  0
  2  1  1  6
  2  3  1  0
  3  4  2  0
  3  5  1  0
  2  6  1  0
  6  7  2  0
  7  8  1  0
  8  9  2  0
  9 10  1  0
 10 11  2  0
 10 12  1  0
 12 13  1  0
 13 14  2  0
 14 15  1  0
 15 16  2  0
 16 17  1  0
 16 18  1  0
 18 19  2  0
 11  6  1  0
 19 13  1  0
 19  9  1  0
M  CHG  1   5  -1
M  END
>  <shape_align_shape_tanimoto>  (3) 
0.4905325986170519

>  <shape_align_color_tanimoto>  (3) 
0.061794835653585047

>  <metric>  (3) 
combo

>  <metric_score>  (3) 
0.276

>  <template_pid>  (3) 
4MJR

>  <template_shape_score>  (3) 
0.491

>  <template_color_score>  (3) 
0.062

>  <template_combo_score>  (3) 
0.276

$$$$
