4B6S_shape_pose
     RDKit          3D

 25 26  0  0  0  0  0  0  0  0999 V2000
    5.7993    2.9944   92.3976 O   0  0  0  0  0  0  0  0  0  0  0  0
    7.0345    2.9713   92.4727 C   0  0  0  0  0  0  0  0  0  0  0  0
    7.6487    2.4844   93.7346 C   0  0  1  0  0  0  0  0  0  0  0  0
    6.8041    1.5709   94.3884 O   0  0  0  0  0  0  0  0  0  0  0  0
    8.9706    1.8163   93.5794 C   0  0  2  0  0  0  0  0  0  0  0  0
    9.6010    1.7764   94.8216 O   0  0  0  0  0  0  0  0  0  0  0  0
    9.8460    2.6134   92.5942 C   0  0  0  0  0  0  0  0  0  0  0  0
    9.1044    2.6321   91.2972 C   0  0  2  0  0  0  0  0  0  0  0  0
    8.6408    1.2455   91.2221 O   0  0  0  0  0  0  0  0  0  0  0  0
    9.9482    2.6860   90.0833 C   0  0  0  0  0  0  0  0  0  0  0  0
   10.0427    1.6168   89.4114 O   0  0  0  0  0  0  0  0  0  0  0  0
   10.6361    3.7791   89.6155 O   0  0  0  0  0  0  0  0  0  0  0  0
    7.8801    3.4303   91.3015 C   0  0  2  0  0  0  0  0  0  0  0  0
    7.8112    4.8673   91.0797 C   0  0  0  0  0  0  0  0  0  0  0  0
    8.1875    5.8259   92.0984 C   0  0  0  0  0  0  0  0  0  0  0  0
    9.4456    6.2533   92.4361 C   0  0  0  0  0  0  0  0  0  0  0  0
   10.5142    5.7984   91.7687 F   0  0  0  0  0  0  0  0  0  0  0  0
    9.6913    7.1714   93.4537 C   0  0  0  0  0  0  0  0  0  0  0  0
   10.9787    7.5556   93.7391 F   0  0  0  0  0  0  0  0  0  0  0  0
    8.6591    7.7086   94.1884 C   0  0  0  0  0  0  0  0  0  0  0  0
    8.9284    8.5987   95.1715 F   0  0  0  0  0  0  0  0  0  0  0  0
    7.3838    7.2950   93.8677 C   0  0  0  0  0  0  0  0  0  0  0  0
    6.3569    7.8192   94.5867 F   0  0  0  0  0  0  0  0  0  0  0  0
    7.1435    6.3888   92.8633 C   0  0  0  0  0  0  0  0  0  0  0  0
    5.8506    6.0459   92.6257 F   0  0  0  0  0  0  0  0  0  0  0  0
  1  2  2  0
  2  3  1  0
  3  4  1  6
  3  5  1  0
  5  6  1  1
  5  7  1  0
  7  8  1  0
  8  9  1  6
  8 10  1  0
 10 11  2  0
 10 12  1  0
  8 13  1  0
 13 14  1  1
 14 15  1  0
 15 16  2  0
 16 17  1  0
 16 18  1  0
 18 19  1  0
 18 20  2  0
 20 21  1  0
 20 22  1  0
 22 23  1  0
 22 24  2  0
 24 25  1  0
 13  2  1  0
 24 15  1  0
M  CHG  1  12  -1
M  END
>  <shape_align_shape_tanimoto>  (1) 
0.77543562754792872

>  <shape_align_color_tanimoto>  (1) 
0.043192871486885817

>  <metric>  (1) 
shape

>  <metric_score>  (1) 
0.775

>  <template_pid>  (1) 
4B6S

>  <template_shape_score>  (1) 
0.775

>  <template_color_score>  (1) 
0.043

>  <template_combo_score>  (1) 
0.409

$$$$
4B6S_color_pose
     RDKit          3D

 25 26  0  0  0  0  0  0  0  0999 V2000
   10.6321    6.8092   91.9026 O   0  0  0  0  0  0  0  0  0  0  0  0
    9.6267    6.9247   92.5751 C   0  0  0  0  0  0  0  0  0  0  0  0
    9.8627    7.4239   93.9751 C   0  0  1  0  0  0  0  0  0  0  0  0
   11.1036    8.0485   94.0757 O   0  0  0  0  0  0  0  0  0  0  0  0
    8.7422    8.4139   94.2054 C   0  0  2  0  0  0  0  0  0  0  0  0
    8.9331    9.0839   95.4118 O   0  0  0  0  0  0  0  0  0  0  0  0
    7.4801    7.6144   94.2999 C   0  0  0  0  0  0  0  0  0  0  0  0
    7.2856    6.5409   93.2862 C   0  0  2  0  0  0  0  0  0  0  0  0
    5.9878    6.7768   92.7434 O   0  0  0  0  0  0  0  0  0  0  0  0
    7.2171    5.2604   93.9802 C   0  0  0  0  0  0  0  0  0  0  0  0
    6.0414    4.7946   94.2153 O   0  0  0  0  0  0  0  0  0  0  0  0
    8.2566    4.4791   94.4177 O   0  0  0  0  0  0  0  0  0  0  0  0
    8.2533    6.6292   92.1272 C   0  0  2  0  0  0  0  0  0  0  0  0
    8.0338    5.6020   91.1068 C   0  0  0  0  0  0  0  0  0  0  0  0
    8.3296    4.2027   91.2814 C   0  0  0  0  0  0  0  0  0  0  0  0
    9.5254    3.5505   91.2835 C   0  0  0  0  0  0  0  0  0  0  0  0
   10.6808    4.1918   91.0695 F   0  0  0  0  0  0  0  0  0  0  0  0
    9.6431    2.1622   91.4622 C   0  0  0  0  0  0  0  0  0  0  0  0
   10.8461    1.5574   91.4587 F   0  0  0  0  0  0  0  0  0  0  0  0
    8.5315    1.3819   91.6456 C   0  0  0  0  0  0  0  0  0  0  0  0
    8.5934    0.0431   91.8226 F   0  0  0  0  0  0  0  0  0  0  0  0
    7.3113    2.0108   91.6459 C   0  0  0  0  0  0  0  0  0  0  0  0
    6.1974    1.2418   91.8277 F   0  0  0  0  0  0  0  0  0  0  0  0
    7.1991    3.3624   91.4715 C   0  0  0  0  0  0  0  0  0  0  0  0
    5.9450    3.8766   91.4372 F   0  0  0  0  0  0  0  0  0  0  0  0
  1  2  2  0
  2  3  1  0
  3  4  1  6
  3  5  1  0
  5  6  1  1
  5  7  1  0
  7  8  1  0
  8  9  1  6
  8 10  1  0
 10 11  2  0
 10 12  1  0
  8 13  1  0
 13 14  1  1
 14 15  1  0
 15 16  2  0
 16 17  1  0
 16 18  1  0
 18 19  1  0
 18 20  2  0
 20 21  1  0
 20 22  1  0
 22 23  1  0
 22 24  2  0
 24 25  1  0
 13  2  1  0
 24 15  1  0
M  CHG  1  12  -1
M  END
>  <shape_align_shape_tanimoto>  (2) 
0.63836995167235799

>  <shape_align_color_tanimoto>  (2) 
0.095146407672126565

>  <metric>  (2) 
color

>  <metric_score>  (2) 
0.095

>  <template_pid>  (2) 
4B6S

>  <template_shape_score>  (2) 
0.638

>  <template_color_score>  (2) 
0.095

>  <template_combo_score>  (2) 
0.367

$$$$
4B6S_combo_pose
     RDKit          3D

 25 26  0  0  0  0  0  0  0  0999 V2000
    5.8038    2.8029   92.4250 O   0  0  0  0  0  0  0  0  0  0  0  0
    7.0014    2.9886   92.5034 C   0  0  0  0  0  0  0  0  0  0  0  0
    7.7623    2.8472   93.7970 C   0  0  1  0  0  0  0  0  0  0  0  0
    6.9754    2.4720   94.8495 O   0  0  0  0  0  0  0  0  0  0  0  0
    8.8623    1.8404   93.5607 C   0  0  2  0  0  0  0  0  0  0  0  0
    9.5087    1.4929   94.7438 O   0  0  0  0  0  0  0  0  0  0  0  0
    9.8443    2.5408   92.6017 C   0  0  0  0  0  0  0  0  0  0  0  0
    9.1004    2.5930   91.2853 C   0  0  2  0  0  0  0  0  0  0  0  0
    8.6223    1.2060   91.1979 O   0  0  0  0  0  0  0  0  0  0  0  0
    9.9177    2.6953   90.0939 C   0  0  0  0  0  0  0  0  0  0  0  0
   10.0144    1.6331   89.3675 O   0  0  0  0  0  0  0  0  0  0  0  0
   10.6173    3.7791   89.6175 O   0  0  0  0  0  0  0  0  0  0  0  0
    7.8559    3.3773   91.3265 C   0  0  2  0  0  0  0  0  0  0  0  0
    7.8125    4.8202   91.0377 C   0  0  0  0  0  0  0  0  0  0  0  0
    8.1953    5.7837   92.0555 C   0  0  0  0  0  0  0  0  0  0  0  0
    9.4446    6.2010   92.4105 C   0  0  0  0  0  0  0  0  0  0  0  0
   10.5323    5.7484   91.7612 F   0  0  0  0  0  0  0  0  0  0  0  0
    9.6845    7.1233   93.4328 C   0  0  0  0  0  0  0  0  0  0  0  0
   10.9524    7.4985   93.7384 F   0  0  0  0  0  0  0  0  0  0  0  0
    8.6417    7.6675   94.1462 C   0  0  0  0  0  0  0  0  0  0  0  0
    8.7947    8.5650   95.1456 F   0  0  0  0  0  0  0  0  0  0  0  0
    7.3707    7.2625   93.8052 C   0  0  0  0  0  0  0  0  0  0  0  0
    6.3234    7.7842   94.4918 F   0  0  0  0  0  0  0  0  0  0  0  0
    7.1411    6.3563   92.8006 C   0  0  0  0  0  0  0  0  0  0  0  0
    5.8487    6.0145   92.5326 F   0  0  0  0  0  0  0  0  0  0  0  0
  1  2  2  0
  2  3  1  0
  3  4  1  1
  3  5  1  0
  5  6  1  1
  5  7  1  0
  7  8  1  0
  8  9  1  6
  8 10  1  0
 10 11  2  0
 10 12  1  0
  8 13  1  0
 13 14  1  1
 14 15  1  0
 15 16  2  0
 16 17  1  0
 16 18  1  0
 18 19  1  0
 18 20  2  0
 20 21  1  0
 20 22  1  0
 22 23  1  0
 22 24  2  0
 24 25  1  0
 13  2  1  0
 24 15  1  0
M  CHG  1  12  -1
M  END
>  <shape_align_shape_tanimoto>  (3) 
0.77445564752855645

>  <shape_align_color_tanimoto>  (3) 
0.051999895334313102

>  <metric>  (3) 
combo

>  <metric_score>  (3) 
0.413

>  <template_pid>  (3) 
4B6S

>  <template_shape_score>  (3) 
0.774

>  <template_color_score>  (3) 
0.052

>  <template_combo_score>  (3) 
0.413

$$$$
