6IZQ_shape_pose
     RDKit          3D

 17 18  0  0  0  0  0  0  0  0999 V2000
   -6.5372    9.9967  -37.8264 C   0  0  0  0  0  0  0  0  0  0  0  0
   -6.2322    9.3096  -39.0655 N   0  0  0  0  0  0  0  0  0  0  0  0
   -6.4665    7.8855  -38.9700 C   0  0  0  0  0  0  0  0  0  0  0  0
   -6.4609    7.3099  -40.3677 C   0  0  1  0  0  0  0  0  0  0  0  0
   -5.2102    7.5754  -40.9246 O   0  0  0  0  0  0  0  0  0  0  0  0
   -6.7398    5.8328  -40.3960 C   0  0  0  0  0  0  0  0  0  0  0  0
   -7.9998    5.4486  -39.8471 N   0  0  1  0  0  0  0  0  0  0  0  0
   -8.6441    4.4610  -40.6925 C   0  0  0  0  0  0  0  0  0  0  0  0
   -9.9723    4.0251  -40.1622 C   0  0  0  0  0  0  0  0  0  0  0  0
   -9.9238    2.6492  -39.5317 C   0  0  0  0  0  0  0  0  0  0  0  0
   -8.5576    2.4428  -38.9738 C   0  0  0  0  0  0  0  0  0  0  0  0
   -8.1688    1.1203  -38.9159 C   0  0  0  0  0  0  0  0  0  0  0  0
   -6.9083    0.7784  -38.4134 C   0  0  0  0  0  0  0  0  0  0  0  0
   -6.0390    1.7804  -37.9680 C   0  0  0  0  0  0  0  0  0  0  0  0
   -6.4298    3.1084  -38.0262 C   0  0  0  0  0  0  0  0  0  0  0  0
   -7.6862    3.4307  -38.5286 C   0  0  0  0  0  0  0  0  0  0  0  0
   -7.9223    4.9154  -38.5092 C   0  0  0  0  0  0  0  0  0  0  0  0
  1  2  1  0
  2  3  1  0
  3  4  1  0
  4  5  1  1
  4  6  1  0
  7  6  1  6
  7  8  1  0
  8  9  1  0
  9 10  1  0
 10 11  1  0
 11 12  2  0
 12 13  1  0
 13 14  2  0
 14 15  1  0
 15 16  2  0
 16 17  1  0
 17  7  1  0
 16 11  1  0
M  CHG  2   2   1   7   1
M  END
>  <shape_align_shape_tanimoto>  (1) 
0.5177671086948441

>  <shape_align_color_tanimoto>  (1) 
0.045789945561550693

>  <metric>  (1) 
shape

>  <metric_score>  (1) 
0.518

>  <template_pid>  (1) 
6IZQ

>  <template_shape_score>  (1) 
0.518

>  <template_color_score>  (1) 
0.046

>  <template_combo_score>  (1) 
0.282

$$$$
6IZQ_color_pose
     RDKit          3D

 17 18  0  0  0  0  0  0  0  0999 V2000
   -9.8277   -0.0556  -44.4498 C   0  0  0  0  0  0  0  0  0  0  0  0
   -9.5201    1.0846  -43.6125 N   0  0  0  0  0  0  0  0  0  0  0  0
  -10.6352    1.5222  -42.8268 C   0  0  0  0  0  0  0  0  0  0  0  0
  -10.7231    0.8854  -41.4709 C   0  0  1  0  0  0  0  0  0  0  0  0
  -10.8411   -0.4965  -41.6426 O   0  0  0  0  0  0  0  0  0  0  0  0
   -9.5705    1.2140  -40.5732 C   0  0  0  0  0  0  0  0  0  0  0  0
   -9.3722    2.6102  -40.3394 N   0  0  1  0  0  0  0  0  0  0  0  0
   -9.3670    2.9226  -38.9494 C   0  0  0  0  0  0  0  0  0  0  0  0
   -8.3334    2.2260  -38.1349 C   0  0  0  0  0  0  0  0  0  0  0  0
   -6.9616    2.8884  -38.1969 C   0  0  0  0  0  0  0  0  0  0  0  0
   -7.1407    4.1784  -38.9257 C   0  0  0  0  0  0  0  0  0  0  0  0
   -6.6777    5.2768  -38.2321 C   0  0  0  0  0  0  0  0  0  0  0  0
   -6.7853    6.5377  -38.7999 C   0  0  0  0  0  0  0  0  0  0  0  0
   -7.3577    6.6123  -40.0417 C   0  0  0  0  0  0  0  0  0  0  0  0
   -7.8263    5.5369  -40.7532 C   0  0  0  0  0  0  0  0  0  0  0  0
   -7.7191    4.2811  -40.1877 C   0  0  0  0  0  0  0  0  0  0  0  0
   -8.2694    3.1937  -41.0707 C   0  0  0  0  0  0  0  0  0  0  0  0
  1  2  1  0
  2  3  1  0
  3  4  1  0
  4  5  1  6
  4  6  1  0
  7  6  1  1
  7  8  1  0
  8  9  1  0
  9 10  1  0
 10 11  1  0
 11 12  2  0
 12 13  1  0
 13 14  2  0
 14 15  1  0
 15 16  2  0
 16 17  1  0
 17  7  1  0
 16 11  1  0
M  CHG  2   2   1   7   1
M  END
>  <shape_align_shape_tanimoto>  (2) 
0.40404165692421307

>  <shape_align_color_tanimoto>  (2) 
0.09221540614106459

>  <metric>  (2) 
color

>  <metric_score>  (2) 
0.092

>  <template_pid>  (2) 
6IZQ

>  <template_shape_score>  (2) 
0.404

>  <template_color_score>  (2) 
0.092

>  <template_combo_score>  (2) 
0.248

$$$$
6IZQ_combo_pose
     RDKit          3D

 17 18  0  0  0  0  0  0  0  0999 V2000
   -6.5372    9.9967  -37.8264 C   0  0  0  0  0  0  0  0  0  0  0  0
   -6.2322    9.3096  -39.0655 N   0  0  0  0  0  0  0  0  0  0  0  0
   -6.4665    7.8855  -38.9700 C   0  0  0  0  0  0  0  0  0  0  0  0
   -6.4609    7.3099  -40.3677 C   0  0  1  0  0  0  0  0  0  0  0  0
   -5.2102    7.5754  -40.9246 O   0  0  0  0  0  0  0  0  0  0  0  0
   -6.7398    5.8328  -40.3960 C   0  0  0  0  0  0  0  0  0  0  0  0
   -7.9998    5.4486  -39.8471 N   0  0  1  0  0  0  0  0  0  0  0  0
   -8.6441    4.4610  -40.6925 C   0  0  0  0  0  0  0  0  0  0  0  0
   -9.9723    4.0251  -40.1622 C   0  0  0  0  0  0  0  0  0  0  0  0
   -9.9238    2.6492  -39.5317 C   0  0  0  0  0  0  0  0  0  0  0  0
   -8.5576    2.4428  -38.9738 C   0  0  0  0  0  0  0  0  0  0  0  0
   -8.1688    1.1203  -38.9159 C   0  0  0  0  0  0  0  0  0  0  0  0
   -6.9083    0.7784  -38.4134 C   0  0  0  0  0  0  0  0  0  0  0  0
   -6.0390    1.7804  -37.9680 C   0  0  0  0  0  0  0  0  0  0  0  0
   -6.4298    3.1084  -38.0262 C   0  0  0  0  0  0  0  0  0  0  0  0
   -7.6862    3.4307  -38.5286 C   0  0  0  0  0  0  0  0  0  0  0  0
   -7.9223    4.9154  -38.5092 C   0  0  0  0  0  0  0  0  0  0  0  0
  1  2  1  0
  2  3  1  0
  3  4  1  0
  4  5  1  1
  4  6  1  0
  7  6  1  6
  7  8  1  0
  8  9  1  0
  9 10  1  0
 10 11  1  0
 11 12  2  0
 12 13  1  0
 13 14  2  0
 14 15  1  0
 15 16  2  0
 16 17  1  0
 17  7  1  0
 16 11  1  0
M  CHG  2   2   1   7   1
M  END
>  <shape_align_shape_tanimoto>  (3) 
0.5177671086948441

>  <shape_align_color_tanimoto>  (3) 
0.045789945561550693

>  <metric>  (3) 
combo

>  <metric_score>  (3) 
0.282

>  <template_pid>  (3) 
6IZQ

>  <template_shape_score>  (3) 
0.518

>  <template_color_score>  (3) 
0.046

>  <template_combo_score>  (3) 
0.282

$$$$
