4H1E_shape_pose
     RDKit          3D

 33 37  0  0  0  0  0  0  0  0999 V2000
   32.6573   78.5557   23.9370 C   0  0  0  0  0  0  0  0  0  0  0  0
   31.6563   78.1016   22.9754 N   0  0  0  0  0  0  0  0  0  0  0  0
   32.0842   77.8172   21.6565 C   0  0  0  0  0  0  0  0  0  0  0  0
   33.3181   77.9529   21.3106 N   0  0  0  0  0  0  0  0  0  0  0  0
   31.1269   77.3757   20.7095 N   0  0  0  0  0  0  0  0  0  0  0  0
   29.6989   77.4181   20.9721 C   0  0  1  0  0  0  0  0  0  0  0  0
   29.0803   78.6448   20.4021 C   0  0  0  0  0  0  0  0  0  0  0  0
   28.1452   78.8452   19.4803 C   0  0  0  0  0  0  0  0  0  0  0  0
   27.7804   80.1065   19.1686 C   0  0  0  0  0  0  0  0  0  0  0  0
   26.7422   80.4393   18.1485 C   0  0  0  0  0  0  0  0  0  0  0  0
   26.8065   81.5819   17.4152 C   0  0  0  0  0  0  0  0  0  0  0  0
   25.8046   81.8273   16.4810 C   0  0  0  0  0  0  0  0  0  0  0  0
   24.7537   80.9328   16.2900 C   0  0  0  0  0  0  0  0  0  0  0  0
   24.6912   79.7757   17.0345 C   0  0  0  0  0  0  0  0  0  0  0  0
   23.6491   78.8016   16.9036 C   0  0  0  0  0  0  0  0  0  0  0  0
   22.8104   78.0157   16.7847 N   0  0  0  0  0  0  0  0  0  0  0  0
   25.6963   79.5631   17.9486 C   0  0  0  0  0  0  0  0  0  0  0  0
   28.4178   81.1181   19.8432 C   0  0  0  0  0  0  0  0  0  0  0  0
   29.5689   80.2538   20.9526 S   0  0  0  0  0  0  0  0  0  0  0  0
   29.0387   76.2339   20.3007 C   0  0  0  0  0  0  0  0  0  0  0  0
   29.3064   75.1390   21.2455 N   0  0  0  0  0  0  0  0  0  0  0  0
   29.2212   73.7507   20.9476 C   0  0  0  0  0  0  0  0  0  0  0  0
   29.4688   72.8637   21.8242 O   0  0  0  0  0  0  0  0  0  0  0  0
   28.8456   73.2630   19.6232 C   0  0  0  0  0  0  0  0  0  0  0  0
   27.5077   72.9721   19.3857 C   0  0  0  0  0  0  0  0  0  0  0  0
   27.0613   72.5056   18.1596 C   0  0  0  0  0  0  0  0  0  0  0  0
   27.9720   72.3201   17.1314 C   0  0  0  0  0  0  0  0  0  0  0  0
   29.3036   72.6076   17.3614 C   0  0  0  0  0  0  0  0  0  0  0  0
   29.7513   73.0786   18.6006 C   0  0  0  0  0  0  0  0  0  0  0  0
   29.6713   75.6797   22.5340 C   0  0  0  0  0  0  0  0  0  0  0  0
   29.3918   77.1817   22.4113 C   0  0  1  0  0  0  0  0  0  0  0  0
   30.2861   77.9408   23.3240 C   0  0  0  0  0  0  0  0  0  0  0  0
   29.8883   78.4498   24.3935 O   0  0  0  0  0  0  0  0  0  0  0  0
  1  2  1  0
  2  3  1  0
  3  4  2  0
  3  5  1  0
  5  6  1  0
  6  7  1  6
  7  8  2  0
  8  9  1  0
  9 10  1  0
 10 11  2  0
 11 12  1  0
 12 13  2  0
 13 14  1  0
 14 15  1  0
 15 16  3  0
 14 17  2  0
  9 18  2  0
 18 19  1  0
  6 20  1  0
 20 21  1  0
 21 22  1  0
 22 23  2  0
 22 24  1  0
 24 25  2  0
 25 26  1  0
 26 27  2  0
 27 28  1  0
 28 29  2  0
 21 30  1  0
 31 30  1  1
 31 32  1  0
 32 33  2  0
 32  2  1  0
 31  6  1  0
 19  7  1  0
 29 24  1  0
 17 10  1  0
M  CHG  1   4   1
M  END
>  <shape_align_shape_tanimoto>  (1) 
0.6893813556322177

>  <shape_align_color_tanimoto>  (1) 
0.01890445141033761

>  <metric>  (1) 
shape

>  <metric_score>  (1) 
0.689

>  <template_pid>  (1) 
4H1E

>  <template_shape_score>  (1) 
0.689

>  <template_color_score>  (1) 
0.019

>  <template_combo_score>  (1) 
0.354

$$$$
4H1E_color_pose
     RDKit          3D

 33 37  0  0  0  0  0  0  0  0999 V2000
   30.0435   72.2733   18.1182 C   0  0  0  0  0  0  0  0  0  0  0  0
   29.5182   73.2205   19.0681 N   0  0  0  0  0  0  0  0  0  0  0  0
   28.1542   73.5911   19.1622 C   0  0  0  0  0  0  0  0  0  0  0  0
   27.3222   73.0012   18.3288 N   0  0  0  0  0  0  0  0  0  0  0  0
   27.6796   74.5465   20.1191 N   0  0  0  0  0  0  0  0  0  0  0  0
   28.5867   75.2246   20.9910 C   0  0  1  0  0  0  0  0  0  0  0  0
   28.9140   76.5753   20.5974 C   0  0  0  0  0  0  0  0  0  0  0  0
   28.1343   77.5069   20.0330 C   0  0  0  0  0  0  0  0  0  0  0  0
   28.6424   78.7128   19.7380 C   0  0  0  0  0  0  0  0  0  0  0  0
   27.8246   79.8013   19.1177 C   0  0  0  0  0  0  0  0  0  0  0  0
   28.0906   81.1247   19.3931 C   0  0  0  0  0  0  0  0  0  0  0  0
   27.2887   82.0862   18.7869 C   0  0  0  0  0  0  0  0  0  0  0  0
   26.2616   81.7429   17.9388 C   0  0  0  0  0  0  0  0  0  0  0  0
   26.0017   80.4234   17.6676 C   0  0  0  0  0  0  0  0  0  0  0  0
   24.9501   80.0145   16.7821 C   0  0  0  0  0  0  0  0  0  0  0  0
   24.0962   79.6863   16.0575 N   0  0  0  0  0  0  0  0  0  0  0  0
   26.7747   79.4639   18.2506 C   0  0  0  0  0  0  0  0  0  0  0  0
   29.9630   78.9474   20.0297 C   0  0  0  0  0  0  0  0  0  0  0  0
   30.5270   77.3534   20.7744 S   0  0  0  0  0  0  0  0  0  0  0  0
   27.9874   75.2128   22.3933 C   0  0  0  0  0  0  0  0  0  0  0  0
   27.9074   73.7410   22.5499 N   0  0  0  0  0  0  0  0  0  0  0  0
   26.7547   73.1315   23.0771 C   0  0  0  0  0  0  0  0  0  0  0  0
   25.8035   73.8998   23.4140 O   0  0  0  0  0  0  0  0  0  0  0  0
   26.5516   71.7172   23.2687 C   0  0  0  0  0  0  0  0  0  0  0  0
   26.9899   70.9791   24.3302 C   0  0  0  0  0  0  0  0  0  0  0  0
   26.7284   69.6077   24.4211 C   0  0  0  0  0  0  0  0  0  0  0  0
   26.0187   68.9377   23.4469 C   0  0  0  0  0  0  0  0  0  0  0  0
   25.5685   69.6930   22.3565 C   0  0  0  0  0  0  0  0  0  0  0  0
   25.8302   71.0431   22.2753 C   0  0  0  0  0  0  0  0  0  0  0  0
   29.1581   73.2392   22.0682 C   0  0  0  0  0  0  0  0  0  0  0  0
   29.8081   74.3599   21.2484 C   0  0  1  0  0  0  0  0  0  0  0  0
   30.4084   73.8655   20.0029 C   0  0  0  0  0  0  0  0  0  0  0  0
   31.6490   73.9866   19.7331 O   0  0  0  0  0  0  0  0  0  0  0  0
  1  2  1  0
  2  3  1  0
  3  4  2  0
  3  5  1  0
  5  6  1  0
  6  7  1  6
  7  8  2  0
  8  9  1  0
  9 10  1  0
 10 11  2  0
 11 12  1  0
 12 13  2  0
 13 14  1  0
 14 15  1  0
 15 16  3  0
 14 17  2  0
  9 18  2  0
 18 19  1  0
  6 20  1  0
 20 21  1  0
 21 22  1  0
 22 23  2  0
 22 24  1  0
 24 25  2  0
 25 26  1  0
 26 27  2  0
 27 28  1  0
 28 29  2  0
 21 30  1  0
 31 30  1  1
 31 32  1  0
 32 33  2  0
 32  2  1  0
 31  6  1  0
 19  7  1  0
 29 24  1  0
 17 10  1  0
M  CHG  1   4   1
M  END
>  <shape_align_shape_tanimoto>  (2) 
0.55225058674856176

>  <shape_align_color_tanimoto>  (2) 
0.11094433460071199

>  <metric>  (2) 
color

>  <metric_score>  (2) 
0.111

>  <template_pid>  (2) 
4H1E

>  <template_shape_score>  (2) 
0.552

>  <template_color_score>  (2) 
0.111

>  <template_combo_score>  (2) 
0.332

$$$$
4H1E_combo_pose
     RDKit          3D

 33 37  0  0  0  0  0  0  0  0999 V2000
   32.6573   78.5557   23.9370 C   0  0  0  0  0  0  0  0  0  0  0  0
   31.6563   78.1016   22.9754 N   0  0  0  0  0  0  0  0  0  0  0  0
   32.0842   77.8172   21.6565 C   0  0  0  0  0  0  0  0  0  0  0  0
   33.3181   77.9529   21.3106 N   0  0  0  0  0  0  0  0  0  0  0  0
   31.1269   77.3757   20.7095 N   0  0  0  0  0  0  0  0  0  0  0  0
   29.6989   77.4181   20.9721 C   0  0  1  0  0  0  0  0  0  0  0  0
   29.0803   78.6448   20.4021 C   0  0  0  0  0  0  0  0  0  0  0  0
   28.1452   78.8452   19.4803 C   0  0  0  0  0  0  0  0  0  0  0  0
   27.7804   80.1065   19.1686 C   0  0  0  0  0  0  0  0  0  0  0  0
   26.7422   80.4393   18.1485 C   0  0  0  0  0  0  0  0  0  0  0  0
   26.8065   81.5819   17.4152 C   0  0  0  0  0  0  0  0  0  0  0  0
   25.8046   81.8273   16.4810 C   0  0  0  0  0  0  0  0  0  0  0  0
   24.7537   80.9328   16.2900 C   0  0  0  0  0  0  0  0  0  0  0  0
   24.6912   79.7757   17.0345 C   0  0  0  0  0  0  0  0  0  0  0  0
   23.6491   78.8016   16.9036 C   0  0  0  0  0  0  0  0  0  0  0  0
   22.8104   78.0157   16.7847 N   0  0  0  0  0  0  0  0  0  0  0  0
   25.6963   79.5631   17.9486 C   0  0  0  0  0  0  0  0  0  0  0  0
   28.4178   81.1181   19.8432 C   0  0  0  0  0  0  0  0  0  0  0  0
   29.5689   80.2538   20.9526 S   0  0  0  0  0  0  0  0  0  0  0  0
   29.0387   76.2339   20.3007 C   0  0  0  0  0  0  0  0  0  0  0  0
   29.3064   75.1390   21.2455 N   0  0  0  0  0  0  0  0  0  0  0  0
   29.2212   73.7507   20.9476 C   0  0  0  0  0  0  0  0  0  0  0  0
   29.4688   72.8637   21.8242 O   0  0  0  0  0  0  0  0  0  0  0  0
   28.8456   73.2630   19.6232 C   0  0  0  0  0  0  0  0  0  0  0  0
   27.5077   72.9721   19.3857 C   0  0  0  0  0  0  0  0  0  0  0  0
   27.0613   72.5056   18.1596 C   0  0  0  0  0  0  0  0  0  0  0  0
   27.9720   72.3201   17.1314 C   0  0  0  0  0  0  0  0  0  0  0  0
   29.3036   72.6076   17.3614 C   0  0  0  0  0  0  0  0  0  0  0  0
   29.7513   73.0786   18.6006 C   0  0  0  0  0  0  0  0  0  0  0  0
   29.6713   75.6797   22.5340 C   0  0  0  0  0  0  0  0  0  0  0  0
   29.3918   77.1817   22.4113 C   0  0  1  0  0  0  0  0  0  0  0  0
   30.2861   77.9408   23.3240 C   0  0  0  0  0  0  0  0  0  0  0  0
   29.8883   78.4498   24.3935 O   0  0  0  0  0  0  0  0  0  0  0  0
  1  2  1  0
  2  3  1  0
  3  4  2  0
  3  5  1  0
  5  6  1  0
  6  7  1  6
  7  8  2  0
  8  9  1  0
  9 10  1  0
 10 11  2  0
 11 12  1  0
 12 13  2  0
 13 14  1  0
 14 15  1  0
 15 16  3  0
 14 17  2  0
  9 18  2  0
 18 19  1  0
  6 20  1  0
 20 21  1  0
 21 22  1  0
 22 23  2  0
 22 24  1  0
 24 25  2  0
 25 26  1  0
 26 27  2  0
 27 28  1  0
 28 29  2  0
 21 30  1  0
 31 30  1  1
 31 32  1  0
 32 33  2  0
 32  2  1  0
 31  6  1  0
 19  7  1  0
 29 24  1  0
 17 10  1  0
M  CHG  1   4   1
M  END
>  <shape_align_shape_tanimoto>  (3) 
0.6893813556322177

>  <shape_align_color_tanimoto>  (3) 
0.01890445141033761

>  <metric>  (3) 
combo

>  <metric_score>  (3) 
0.354

>  <template_pid>  (3) 
4H1E

>  <template_shape_score>  (3) 
0.689

>  <template_color_score>  (3) 
0.019

>  <template_combo_score>  (3) 
0.354

$$$$
