6GBW_shape_pose
     RDKit          3D

 39 41  0  0  0  0  0  0  0  0999 V2000
   12.4254  -16.2613   22.8519 N   0  0  0  0  0  0  0  0  0  0  0  0
   11.9402  -15.6198   21.6612 C   0  0  0  0  0  0  0  0  0  0  0  0
   10.7731  -15.9469   21.2730 N   0  0  0  0  0  0  0  0  0  0  0  0
   12.8056  -14.7209   21.0189 N   0  0  0  0  0  0  0  0  0  0  0  0
   12.6052  -13.9891   19.8165 C   0  0  0  0  0  0  0  0  0  0  0  0
   12.8373  -14.6769   18.5356 C   0  0  0  0  0  0  0  0  0  0  0  0
   12.0318  -15.8735   18.2654 C   0  0  0  0  0  0  0  0  0  0  0  0
   12.3184  -16.5195   16.9168 C   0  0  2  0  0  0  0  0  0  0  0  0
   13.6353  -16.9596   16.6671 N   0  0  0  0  0  0  0  0  0  0  0  0
   13.8693  -18.6109   16.3884 S   0  0  0  0  0  0  0  0  0  0  0  0
   13.1045  -19.1112   15.1807 O   0  0  0  0  0  0  0  0  0  0  0  0
   15.3381  -18.8738   16.0276 O   0  0  0  0  0  0  0  0  0  0  0  0
   13.4857  -19.6623   17.7314 C   0  0  0  0  0  0  0  0  0  0  0  0
   14.4155  -19.4294   18.8503 C   0  0  0  0  0  0  0  0  0  0  0  0
   15.6413  -20.1158   18.7547 C   0  0  0  0  0  0  0  0  0  0  0  0
   16.6053  -20.0120   19.7323 C   0  0  0  0  0  0  0  0  0  0  0  0
   16.4088  -19.2300   20.8484 C   0  0  0  0  0  0  0  0  0  0  0  0
   15.2058  -18.5491   20.9563 C   0  0  0  0  0  0  0  0  0  0  0  0
   14.2441  -18.6685   19.9532 C   0  0  0  0  0  0  0  0  0  0  0  0
   11.7653  -15.6606   15.8248 C   0  0  0  0  0  0  0  0  0  0  0  0
   10.5708  -15.2307   15.9900 O   0  0  0  0  0  0  0  0  0  0  0  0
   12.4183  -15.2805   14.6495 N   0  0  0  0  0  0  0  0  0  0  0  0
   11.7682  -14.4144   13.6437 C   0  0  0  0  0  0  0  0  0  0  0  0
   12.2215  -14.9596   12.3276 C   0  0  0  0  0  0  0  0  0  0  0  0
   13.5960  -15.4801   12.5889 C   0  0  0  0  0  0  0  0  0  0  0  0
   13.7180  -15.5418   14.0858 C   0  0  1  0  0  0  0  0  0  0  0  0
   14.6936  -14.4890   14.5042 C   0  0  0  0  0  0  0  0  0  0  0  0
   14.1811  -13.5019   15.1253 O   0  0  0  0  0  0  0  0  0  0  0  0
   16.0810  -14.5670   14.2408 N   0  0  0  0  0  0  0  0  0  0  0  0
   17.0002  -13.5342   14.6603 C   0  0  0  0  0  0  0  0  0  0  0  0
   16.7821  -12.2062   14.0693 C   0  0  0  0  0  0  0  0  0  0  0  0
   16.1145  -11.2094   14.7770 C   0  0  0  0  0  0  0  0  0  0  0  0
   15.8771   -9.9591   14.2504 C   0  0  0  0  0  0  0  0  0  0  0  0
   15.0410   -8.7250   15.1562 Cl  0  0  0  0  0  0  0  0  0  0  0  0
   16.3014   -9.6464   12.9807 C   0  0  0  0  0  0  0  0  0  0  0  0
   16.9615  -10.6257   12.2802 C   0  0  0  0  0  0  0  0  0  0  0  0
   17.2193  -11.8929   12.7713 C   0  0  0  0  0  0  0  0  0  0  0  0
   17.9445  -12.8412   11.9323 C   0  0  0  0  0  0  0  0  0  0  0  0
   17.2058  -13.8669   11.2829 N   0  0  0  0  0  0  0  0  0  0  0  0
  1  2  1  0
  2  3  2  0
  2  4  1  0
  4  5  1  0
  5  6  1  0
  6  7  1  0
  8  7  1  1
  8  9  1  0
  9 10  1  0
 10 11  2  0
 10 12  2  0
 10 13  1  0
 13 14  1  0
 14 15  2  0
 15 16  1  0
 16 17  2  0
 17 18  1  0
 18 19  2  0
  8 20  1  0
 20 21  2  0
 20 22  1  0
 22 23  1  0
 23 24  1  0
 24 25  1  0
 25 26  1  0
 26 27  1  1
 27 28  2  0
 27 29  1  0
 29 30  1  0
 30 31  1  0
 31 32  2  0
 32 33  1  0
 33 34  1  0
 33 35  2  0
 35 36  1  0
 36 37  2  0
 37 38  1  0
 38 39  1  0
 19 14  1  0
 26 22  1  0
 37 31  1  0
M  CHG  2   3   1  39   1
M  END
>  <shape_align_shape_tanimoto>  (1) 
0.57010355456172812

>  <shape_align_color_tanimoto>  (1) 
0.0026062150685761888

>  <metric>  (1) 
shape

>  <metric_score>  (1) 
0.570

>  <template_pid>  (1) 
6GBW

>  <template_shape_score>  (1) 
0.570

>  <template_color_score>  (1) 
0.003

>  <template_combo_score>  (1) 
0.286

$$$$
6GBW_color_pose
     RDKit          3D

 39 41  0  0  0  0  0  0  0  0999 V2000
   14.4202  -10.1911   11.4271 N   0  0  0  0  0  0  0  0  0  0  0  0
   15.5005  -10.2016   12.3898 C   0  0  0  0  0  0  0  0  0  0  0  0
   16.5756   -9.5543   12.1319 N   0  0  0  0  0  0  0  0  0  0  0  0
   15.2957  -10.9591   13.5574 N   0  0  0  0  0  0  0  0  0  0  0  0
   16.1988  -11.1570   14.6363 C   0  0  0  0  0  0  0  0  0  0  0  0
   17.4315  -11.9357   14.3796 C   0  0  0  0  0  0  0  0  0  0  0  0
   17.3251  -13.3093   13.8483 C   0  0  0  0  0  0  0  0  0  0  0  0
   16.6379  -14.3687   14.6763 C   0  0  2  0  0  0  0  0  0  0  0  0
   16.7069  -15.6370   13.8862 N   0  0  0  0  0  0  0  0  0  0  0  0
   17.8848  -16.6926   14.6050 S   0  0  0  0  0  0  0  0  0  0  0  0
   17.9179  -17.9217   13.7428 O   0  0  0  0  0  0  0  0  0  0  0  0
   17.5509  -17.0901   15.9860 O   0  0  0  0  0  0  0  0  0  0  0  0
   19.5073  -15.9754   14.5904 C   0  0  0  0  0  0  0  0  0  0  0  0
   20.5113  -16.8964   15.2103 C   0  0  0  0  0  0  0  0  0  0  0  0
   21.2143  -17.8310   14.4902 C   0  0  0  0  0  0  0  0  0  0  0  0
   22.1304  -18.6553   15.1096 C   0  0  0  0  0  0  0  0  0  0  0  0
   22.3830  -18.5840   16.4641 C   0  0  0  0  0  0  0  0  0  0  0  0
   21.6861  -17.6525   17.1974 C   0  0  0  0  0  0  0  0  0  0  0  0
   20.7861  -16.8452   16.5785 C   0  0  0  0  0  0  0  0  0  0  0  0
   15.2689  -14.0925   15.0689 C   0  0  0  0  0  0  0  0  0  0  0  0
   15.0895  -13.7492   16.3035 O   0  0  0  0  0  0  0  0  0  0  0  0
   14.1230  -14.1665   14.2043 N   0  0  0  0  0  0  0  0  0  0  0  0
   14.0258  -14.4396   12.7934 C   0  0  0  0  0  0  0  0  0  0  0  0
   12.5830  -14.8583   12.5696 C   0  0  0  0  0  0  0  0  0  0  0  0
   11.8485  -13.9338   13.5605 C   0  0  0  0  0  0  0  0  0  0  0  0
   12.7731  -13.9385   14.7617 C   0  0  1  0  0  0  0  0  0  0  0  0
   12.3877  -14.9224   15.7663 C   0  0  0  0  0  0  0  0  0  0  0  0
   11.2621  -14.7661   16.3462 O   0  0  0  0  0  0  0  0  0  0  0  0
   13.1429  -16.0480   16.1697 N   0  0  0  0  0  0  0  0  0  0  0  0
   12.5863  -16.9020   17.1835 C   0  0  0  0  0  0  0  0  0  0  0  0
   13.4264  -18.0584   17.5491 C   0  0  0  0  0  0  0  0  0  0  0  0
   14.1801  -18.0145   18.7126 C   0  0  0  0  0  0  0  0  0  0  0  0
   14.9883  -19.0473   19.1280 C   0  0  0  0  0  0  0  0  0  0  0  0
   15.9295  -18.9568   20.6091 Cl  0  0  0  0  0  0  0  0  0  0  0  0
   15.0520  -20.1731   18.3560 C   0  0  0  0  0  0  0  0  0  0  0  0
   14.3077  -20.2230   17.2018 C   0  0  0  0  0  0  0  0  0  0  0  0
   13.4910  -19.1874   16.7757 C   0  0  0  0  0  0  0  0  0  0  0  0
   12.7459  -19.3760   15.5095 C   0  0  0  0  0  0  0  0  0  0  0  0
   13.4391  -18.6600   14.4597 N   0  0  0  0  0  0  0  0  0  0  0  0
  1  2  1  0
  2  3  2  0
  2  4  1  0
  4  5  1  0
  5  6  1  0
  6  7  1  0
  8  7  1  6
  8  9  1  0
  9 10  1  0
 10 11  2  0
 10 12  2  0
 10 13  1  0
 13 14  1  0
 14 15  2  0
 15 16  1  0
 16 17  2  0
 17 18  1  0
 18 19  2  0
  8 20  1  0
 20 21  2  0
 20 22  1  0
 22 23  1  0
 23 24  1  0
 24 25  1  0
 25 26  1  0
 26 27  1  1
 27 28  2  0
 27 29  1  0
 29 30  1  0
 30 31  1  0
 31 32  2  0
 32 33  1  0
 33 34  1  0
 33 35  2  0
 35 36  1  0
 36 37  2  0
 37 38  1  0
 38 39  1  0
 19 14  1  0
 26 22  1  0
 37 31  1  0
M  CHG  2   3   1  39   1
M  END
>  <shape_align_shape_tanimoto>  (2) 
0.49600319409002402

>  <shape_align_color_tanimoto>  (2) 
0.15639594925964018

>  <metric>  (2) 
color

>  <metric_score>  (2) 
0.156

>  <template_pid>  (2) 
6GBW

>  <template_shape_score>  (2) 
0.496

>  <template_color_score>  (2) 
0.156

>  <template_combo_score>  (2) 
0.326

$$$$
6GBW_combo_pose
     RDKit          3D

 39 41  0  0  0  0  0  0  0  0999 V2000
   14.4202  -10.1911   11.4271 N   0  0  0  0  0  0  0  0  0  0  0  0
   15.5005  -10.2016   12.3898 C   0  0  0  0  0  0  0  0  0  0  0  0
   16.5756   -9.5543   12.1319 N   0  0  0  0  0  0  0  0  0  0  0  0
   15.2957  -10.9591   13.5574 N   0  0  0  0  0  0  0  0  0  0  0  0
   16.1988  -11.1570   14.6363 C   0  0  0  0  0  0  0  0  0  0  0  0
   17.4315  -11.9357   14.3796 C   0  0  0  0  0  0  0  0  0  0  0  0
   17.3251  -13.3093   13.8483 C   0  0  0  0  0  0  0  0  0  0  0  0
   16.6379  -14.3687   14.6763 C   0  0  2  0  0  0  0  0  0  0  0  0
   16.7069  -15.6370   13.8862 N   0  0  0  0  0  0  0  0  0  0  0  0
   17.8848  -16.6926   14.6050 S   0  0  0  0  0  0  0  0  0  0  0  0
   17.9179  -17.9217   13.7428 O   0  0  0  0  0  0  0  0  0  0  0  0
   17.5509  -17.0901   15.9860 O   0  0  0  0  0  0  0  0  0  0  0  0
   19.5073  -15.9754   14.5904 C   0  0  0  0  0  0  0  0  0  0  0  0
   20.5113  -16.8964   15.2103 C   0  0  0  0  0  0  0  0  0  0  0  0
   21.2143  -17.8310   14.4902 C   0  0  0  0  0  0  0  0  0  0  0  0
   22.1304  -18.6553   15.1096 C   0  0  0  0  0  0  0  0  0  0  0  0
   22.3830  -18.5840   16.4641 C   0  0  0  0  0  0  0  0  0  0  0  0
   21.6861  -17.6525   17.1974 C   0  0  0  0  0  0  0  0  0  0  0  0
   20.7861  -16.8452   16.5785 C   0  0  0  0  0  0  0  0  0  0  0  0
   15.2689  -14.0925   15.0689 C   0  0  0  0  0  0  0  0  0  0  0  0
   15.0895  -13.7492   16.3035 O   0  0  0  0  0  0  0  0  0  0  0  0
   14.1230  -14.1665   14.2043 N   0  0  0  0  0  0  0  0  0  0  0  0
   14.0258  -14.4396   12.7934 C   0  0  0  0  0  0  0  0  0  0  0  0
   12.5830  -14.8583   12.5696 C   0  0  0  0  0  0  0  0  0  0  0  0
   11.8485  -13.9338   13.5605 C   0  0  0  0  0  0  0  0  0  0  0  0
   12.7731  -13.9385   14.7617 C   0  0  1  0  0  0  0  0  0  0  0  0
   12.3877  -14.9224   15.7663 C   0  0  0  0  0  0  0  0  0  0  0  0
   11.2621  -14.7661   16.3462 O   0  0  0  0  0  0  0  0  0  0  0  0
   13.1429  -16.0480   16.1697 N   0  0  0  0  0  0  0  0  0  0  0  0
   12.5863  -16.9020   17.1835 C   0  0  0  0  0  0  0  0  0  0  0  0
   13.4264  -18.0584   17.5491 C   0  0  0  0  0  0  0  0  0  0  0  0
   14.1801  -18.0145   18.7126 C   0  0  0  0  0  0  0  0  0  0  0  0
   14.9883  -19.0473   19.1280 C   0  0  0  0  0  0  0  0  0  0  0  0
   15.9295  -18.9568   20.6091 Cl  0  0  0  0  0  0  0  0  0  0  0  0
   15.0520  -20.1731   18.3560 C   0  0  0  0  0  0  0  0  0  0  0  0
   14.3077  -20.2230   17.2018 C   0  0  0  0  0  0  0  0  0  0  0  0
   13.4910  -19.1874   16.7757 C   0  0  0  0  0  0  0  0  0  0  0  0
   12.7459  -19.3760   15.5095 C   0  0  0  0  0  0  0  0  0  0  0  0
   13.4391  -18.6600   14.4597 N   0  0  0  0  0  0  0  0  0  0  0  0
  1  2  1  0
  2  3  2  0
  2  4  1  0
  4  5  1  0
  5  6  1  0
  6  7  1  0
  8  7  1  6
  8  9  1  0
  9 10  1  0
 10 11  2  0
 10 12  2  0
 10 13  1  0
 13 14  1  0
 14 15  2  0
 15 16  1  0
 16 17  2  0
 17 18  1  0
 18 19  2  0
  8 20  1  0
 20 21  2  0
 20 22  1  0
 22 23  1  0
 23 24  1  0
 24 25  1  0
 25 26  1  0
 26 27  1  1
 27 28  2  0
 27 29  1  0
 29 30  1  0
 30 31  1  0
 31 32  2  0
 32 33  1  0
 33 34  1  0
 33 35  2  0
 35 36  1  0
 36 37  2  0
 37 38  1  0
 38 39  1  0
 19 14  1  0
 26 22  1  0
 37 31  1  0
M  CHG  2   3   1  39   1
M  END
>  <shape_align_shape_tanimoto>  (3) 
0.49600319409002402

>  <shape_align_color_tanimoto>  (3) 
0.15639594925964018

>  <metric>  (3) 
combo

>  <metric_score>  (3) 
0.326

>  <template_pid>  (3) 
6GBW

>  <template_shape_score>  (3) 
0.496

>  <template_color_score>  (3) 
0.156

>  <template_combo_score>  (3) 
0.326

$$$$
