4WN5_shape_pose
     RDKit          3D

 25 24  0  0  0  0  0  0  0  0999 V2000
  -29.1362   14.9729  -18.6877 C   0  0  0  0  0  0  0  0  0  0  0  0
  -29.8435   13.6209  -18.8272 C   0  0  0  0  0  0  0  0  0  0  0  0
  -30.6586   13.3438  -17.5889 C   0  0  0  0  0  0  0  0  0  0  0  0
  -31.3937   12.0070  -17.6614 C   0  0  0  0  0  0  0  0  0  0  0  0
  -32.1578   11.8271  -16.3942 C   0  0  0  0  0  0  0  0  0  0  0  0
  -32.9539   10.5310  -16.3332 C   0  0  0  0  0  0  0  0  0  0  0  0
  -33.9455   10.4653  -17.4174 C   0  0  0  0  0  0  0  0  0  0  0  0
  -35.2461   10.3732  -17.2781 C   0  0  0  0  0  0  0  0  0  0  0  0
  -35.9699   10.3173  -15.9789 C   0  0  0  0  0  0  0  0  0  0  0  0
  -36.8780   11.5305  -15.9497 C   0  0  0  0  0  0  0  0  0  0  0  0
  -37.6621   11.5256  -14.6594 C   0  0  0  0  0  0  0  0  0  0  0  0
  -38.5472   12.6827  -14.4821 C   0  0  0  0  0  0  0  0  0  0  0  0
  -38.0426   14.0526  -14.3569 C   0  0  0  0  0  0  0  0  0  0  0  0
  -37.2427   14.4543  -13.1916 C   0  0  0  0  0  0  0  0  0  0  0  0
  -35.9469   13.8589  -12.8627 C   0  0  0  0  0  0  0  0  0  0  0  0
  -34.8253   14.0050  -13.8234 C   0  0  0  0  0  0  0  0  0  0  0  0
  -33.5967   13.2907  -13.3141 C   0  0  0  0  0  0  0  0  0  0  0  0
  -33.1776   13.9292  -12.0186 C   0  0  0  0  0  0  0  0  0  0  0  0
  -32.4154   13.2024  -11.3101 O   0  0  0  0  0  0  0  0  0  0  0  0
  -33.5665   15.1637  -11.6318 O   0  0  0  0  0  0  0  0  0  0  0  0
  -33.2762   15.9026  -10.5195 C   0  0  0  0  0  0  0  0  0  0  0  0
  -31.8960   16.4313  -10.4407 C   0  0  1  0  0  0  0  0  0  0  0  0
  -31.8105   17.1466   -9.1928 O   0  0  0  0  0  0  0  0  0  0  0  0
  -30.7657   15.4694  -10.4787 C   0  0  0  0  0  0  0  0  0  0  0  0
  -29.5652   16.2211  -10.3029 O   0  0  0  0  0  0  0  0  0  0  0  0
  1  2  1  0
  2  3  1  0
  3  4  1  0
  4  5  1  0
  5  6  1  0
  6  7  1  0
  7  8  2  0
  8  9  1  0
  9 10  1  0
 10 11  1  0
 11 12  1  0
 12 13  1  0
 13 14  1  0
 14 15  1  0
 15 16  1  0
 16 17  1  0
 17 18  1  0
 18 19  2  0
 18 20  1  0
 20 21  1  0
 21 22  1  0
 22 23  1  1
 22 24  1  0
 24 25  1  0
M  END
>  <shape_align_shape_tanimoto>  (1) 
0.67457194666920606

>  <shape_align_color_tanimoto>  (1) 
0.015644354695091008

>  <metric>  (1) 
shape

>  <metric_score>  (1) 
0.675

>  <template_pid>  (1) 
4WN5

>  <template_shape_score>  (1) 
0.675

>  <template_color_score>  (1) 
0.016

>  <template_combo_score>  (1) 
0.345

$$$$
4WN5_color_pose
     RDKit          3D

 25 24  0  0  0  0  0  0  0  0999 V2000
  -32.5065   14.3357   -5.9002 C   0  0  0  0  0  0  0  0  0  0  0  0
  -32.2622   15.8151   -6.1783 C   0  0  0  0  0  0  0  0  0  0  0  0
  -30.7962   16.1254   -5.9782 C   0  0  0  0  0  0  0  0  0  0  0  0
  -30.4609   17.5576   -6.2291 C   0  0  0  0  0  0  0  0  0  0  0  0
  -30.7856   17.9996   -7.6364 C   0  0  0  0  0  0  0  0  0  0  0  0
  -30.0326   17.2026   -8.6671 C   0  0  0  0  0  0  0  0  0  0  0  0
  -30.4110   17.6987   -9.9888 C   0  0  0  0  0  0  0  0  0  0  0  0
  -30.9821   16.9801  -10.9503 C   0  0  0  0  0  0  0  0  0  0  0  0
  -31.3320   15.5599  -10.8496 C   0  0  0  0  0  0  0  0  0  0  0  0
  -32.8337   15.3371  -11.0414 C   0  0  0  0  0  0  0  0  0  0  0  0
  -33.0859   13.8793  -10.9233 C   0  0  0  0  0  0  0  0  0  0  0  0
  -34.5105   13.4559  -11.0817 C   0  0  0  0  0  0  0  0  0  0  0  0
  -35.1125   13.8126  -12.4113 C   0  0  0  0  0  0  0  0  0  0  0  0
  -36.5114   13.3698  -12.5011 C   0  0  0  0  0  0  0  0  0  0  0  0
  -37.2841   13.6167  -13.7078 C   0  0  0  0  0  0  0  0  0  0  0  0
  -36.8586   13.0709  -14.9998 C   0  0  0  0  0  0  0  0  0  0  0  0
  -36.7806   11.5491  -14.9954 C   0  0  0  0  0  0  0  0  0  0  0  0
  -36.3463   11.0909  -16.3407 C   0  0  0  0  0  0  0  0  0  0  0  0
  -37.2253   11.0479  -17.2609 O   0  0  0  0  0  0  0  0  0  0  0  0
  -35.0735   10.7117  -16.6650 O   0  0  0  0  0  0  0  0  0  0  0  0
  -34.6762   10.2769  -17.9522 C   0  0  0  0  0  0  0  0  0  0  0  0
  -33.1861    9.9571  -17.8740 C   0  0  1  0  0  0  0  0  0  0  0  0
  -32.4493   11.0668  -17.5093 O   0  0  0  0  0  0  0  0  0  0  0  0
  -32.9201    8.8969  -16.8215 C   0  0  0  0  0  0  0  0  0  0  0  0
  -31.5684    8.6212  -16.8106 O   0  0  0  0  0  0  0  0  0  0  0  0
  1  2  1  0
  2  3  1  0
  3  4  1  0
  4  5  1  0
  5  6  1  0
  6  7  1  0
  7  8  2  0
  8  9  1  0
  9 10  1  0
 10 11  1  0
 11 12  1  0
 12 13  1  0
 13 14  1  0
 14 15  1  0
 15 16  1  0
 16 17  1  0
 17 18  1  0
 18 19  2  0
 18 20  1  0
 20 21  1  0
 21 22  1  0
 22 23  1  1
 22 24  1  0
 24 25  1  0
M  END
>  <shape_align_shape_tanimoto>  (2) 
0.41656152909965599

>  <shape_align_color_tanimoto>  (2) 
0.085431846006274681

>  <metric>  (2) 
color

>  <metric_score>  (2) 
0.085

>  <template_pid>  (2) 
4WN5

>  <template_shape_score>  (2) 
0.417

>  <template_color_score>  (2) 
0.085

>  <template_combo_score>  (2) 
0.251

$$$$
4WN5_combo_pose
     RDKit          3D

 25 24  0  0  0  0  0  0  0  0999 V2000
  -32.0248   12.4156   -9.3951 C   0  0  0  0  0  0  0  0  0  0  0  0
  -31.8620   12.9449  -10.7980 C   0  0  0  0  0  0  0  0  0  0  0  0
  -31.0571   14.2060  -10.8578 C   0  0  0  0  0  0  0  0  0  0  0  0
  -31.5833   15.3451  -10.1115 C   0  0  0  0  0  0  0  0  0  0  0  0
  -32.9096   15.9081  -10.3420 C   0  0  0  0  0  0  0  0  0  0  0  0
  -33.2895   16.4838  -11.6599 C   0  0  0  0  0  0  0  0  0  0  0  0
  -33.3094   15.6246  -12.8315 C   0  0  0  0  0  0  0  0  0  0  0  0
  -34.4049   15.3652  -13.5750 C   0  0  0  0  0  0  0  0  0  0  0  0
  -35.7404   15.8978  -13.3296 C   0  0  0  0  0  0  0  0  0  0  0  0
  -36.7710   14.8114  -13.0832 C   0  0  0  0  0  0  0  0  0  0  0  0
  -36.8793   13.8825  -14.2860 C   0  0  0  0  0  0  0  0  0  0  0  0
  -37.9018   12.8352  -13.9763 C   0  0  0  0  0  0  0  0  0  0  0  0
  -38.1239   11.8443  -15.0710 C   0  0  0  0  0  0  0  0  0  0  0  0
  -36.8301   11.0895  -15.4120 C   0  0  0  0  0  0  0  0  0  0  0  0
  -37.1414   10.1243  -16.5010 C   0  0  0  0  0  0  0  0  0  0  0  0
  -36.0908    9.2249  -17.0057 C   0  0  0  0  0  0  0  0  0  0  0  0
  -34.8487    9.7584  -17.5839 C   0  0  0  0  0  0  0  0  0  0  0  0
  -33.9140   10.4790  -16.7339 C   0  0  0  0  0  0  0  0  0  0  0  0
  -33.9070   10.5766  -15.4981 O   0  0  0  0  0  0  0  0  0  0  0  0
  -32.8677   11.1647  -17.3957 O   0  0  0  0  0  0  0  0  0  0  0  0
  -31.9247   11.8874  -16.6265 C   0  0  0  0  0  0  0  0  0  0  0  0
  -30.8827   12.5441  -17.4998 C   0  0  1  0  0  0  0  0  0  0  0  0
  -31.5286   13.4107  -18.3664 O   0  0  0  0  0  0  0  0  0  0  0  0
  -29.9629   13.3446  -16.5734 C   0  0  0  0  0  0  0  0  0  0  0  0
  -29.0071   14.0393  -17.3402 O   0  0  0  0  0  0  0  0  0  0  0  0
  1  2  1  0
  2  3  1  0
  3  4  1  0
  4  5  1  0
  5  6  1  0
  6  7  1  0
  7  8  2  0
  8  9  1  0
  9 10  1  0
 10 11  1  0
 11 12  1  0
 12 13  1  0
 13 14  1  0
 14 15  1  0
 15 16  1  0
 16 17  1  0
 17 18  1  0
 18 19  2  0
 18 20  1  0
 20 21  1  0
 21 22  1  0
 22 23  1  6
 22 24  1  0
 24 25  1  0
M  END
>  <shape_align_shape_tanimoto>  (3) 
0.66048165487334309

>  <shape_align_color_tanimoto>  (3) 
0.050208814796808686

>  <metric>  (3) 
combo

>  <metric_score>  (3) 
0.355

>  <template_pid>  (3) 
4WN5

>  <template_shape_score>  (3) 
0.660

>  <template_color_score>  (3) 
0.050

>  <template_combo_score>  (3) 
0.355

$$$$
