2IGX_shape_pose
     RDKit          3D

 48 53  0  0  0  0  0  0  0  0999 V2000
   48.2041   42.4473   40.8664 C   0  0  0  0  0  0  0  0  0  0  0  0
   49.4121   42.6418   40.0239 C   0  0  0  0  0  0  0  0  0  0  0  0
   50.1944   43.8951   40.2517 C   0  0  0  0  0  0  0  0  0  0  0  0
   49.5223   45.1860   39.9592 C   0  0  0  0  0  0  0  0  0  0  0  0
   48.2881   45.5413   40.7110 C   0  0  0  0  0  0  0  0  0  0  0  0
   47.8700   46.9061   40.1776 C   0  0  0  0  0  0  0  0  0  0  0  0
   47.0308   46.8744   39.0823 C   0  0  0  0  0  0  0  0  0  0  0  0
   46.6444   48.0930   38.5692 C   0  0  0  0  0  0  0  0  0  0  0  0
   47.0818   49.3064   39.1306 C   0  0  0  0  0  0  0  0  0  0  0  0
   46.5864   50.4948   38.4689 C   0  0  0  0  0  0  0  0  0  0  0  0
   45.3952   50.8335   38.7147 O   0  0  0  0  0  0  0  0  0  0  0  0
   47.3032   51.3143   37.5628 N   0  0  0  0  0  0  0  0  0  0  0  0
   46.5447   52.4228   36.9715 C   0  0  0  0  0  0  0  0  0  0  0  0
   46.0256   52.0380   35.6334 C   0  0  0  0  0  0  0  0  0  0  0  0
   46.8079   52.3656   34.5368 C   0  0  0  0  0  0  0  0  0  0  0  0
   46.4765   52.0211   33.2466 C   0  0  0  0  0  0  0  0  0  0  0  0
   45.3022   51.3136   33.0520 C   0  0  0  0  0  0  0  0  0  0  0  0
   45.0187   50.9166   31.6749 C   0  0  0  0  0  0  0  0  0  0  0  0
   45.3882   51.6410   30.5708 C   0  0  0  0  0  0  0  0  0  0  0  0
   45.1328   51.1739   29.2732 C   0  0  0  0  0  0  0  0  0  0  0  0
   44.4924   49.9538   29.1460 C   0  0  0  0  0  0  0  0  0  0  0  0
   44.1971   49.3411   27.8529 C   0  0  0  0  0  0  0  0  0  0  0  0
   43.0335   49.2579   27.3765 O   0  0  0  0  0  0  0  0  0  0  0  0
   45.3229   48.8143   27.1153 N   0  0  0  0  0  0  0  0  0  0  0  0
   46.6867   48.9193   27.6600 C   0  0  0  0  0  0  0  0  0  0  0  0
   47.5645   47.8465   27.0343 C   0  0  0  0  0  0  0  0  0  0  0  0
   46.6863   46.5865   26.9943 C   0  0  0  0  0  0  0  0  0  0  0  0
   45.7651   46.7941   25.8002 C   0  0  0  0  0  0  0  0  0  0  0  0
   45.1254   48.1639   25.8352 C   0  0  0  0  0  0  0  0  0  0  0  0
   44.1056   49.2015   30.2621 C   0  0  0  0  0  0  0  0  0  0  0  0
   44.3675   49.6804   31.5417 C   0  0  0  0  0  0  0  0  0  0  0  0
   44.5042   50.9781   34.1226 C   0  0  0  0  0  0  0  0  0  0  0  0
   44.8575   51.3378   35.4313 C   0  0  0  0  0  0  0  0  0  0  0  0
   48.6813   51.1638   37.2136 C   0  0  1  0  0  0  0  0  0  0  0  0
   49.6531   51.4880   38.3449 C   0  0  0  0  0  0  0  0  0  0  0  0
   50.8332   50.6038   38.4369 C   0  0  0  0  0  0  0  0  0  0  0  0
   51.3396   49.9965   37.2620 N   0  0  2  0  0  0  0  0  0  0  0  0
   52.6720   50.3963   36.8676 C   0  0  0  0  0  0  0  0  0  0  0  0
   52.8197   50.4877   35.3887 C   0  0  0  0  0  0  0  0  0  0  0  0
   53.1822   49.3639   34.6264 C   0  0  0  0  0  0  0  0  0  0  0  0
   53.3265   49.4646   33.2531 C   0  0  0  0  0  0  0  0  0  0  0  0
   53.1070   50.6865   32.6589 C   0  0  0  0  0  0  0  0  0  0  0  0
   52.7467   51.7966   33.4322 C   0  0  0  0  0  0  0  0  0  0  0  0
   52.6105   51.6718   34.7855 N   0  0  0  0  0  0  0  0  0  0  0  0
   50.4349   49.9579   36.1232 C   0  0  0  0  0  0  0  0  0  0  0  0
   49.0559   49.8039   36.7436 C   0  0  0  0  0  0  0  0  0  0  0  0
   47.8838   49.2440   40.1804 N   0  0  0  0  0  0  0  0  0  0  0  0
   48.3018   48.0774   40.7340 C   0  0  0  0  0  0  0  0  0  0  0  0
  1  2  1  0
  2  3  1  0
  3  4  1  0
  4  5  1  0
  5  6  1  0
  6  7  2  0
  7  8  1  0
  8  9  2  0
  9 10  1  0
 10 11  2  0
 10 12  1  0
 12 13  1  0
 13 14  1  0
 14 15  2  0
 15 16  1  0
 16 17  2  0
 17 18  1  0
 18 19  2  0
 19 20  1  0
 20 21  2  0
 21 22  1  0
 22 23  2  0
 22 24  1  0
 24 25  1  0
 25 26  1  0
 26 27  1  0
 27 28  1  0
 28 29  1  0
 21 30  1  0
 30 31  2  0
 17 32  1  0
 32 33  2  0
 34 12  1  1
 34 35  1  0
 35 36  1  0
 36 37  1  0
 37 38  1  6
 38 39  1  0
 39 40  2  0
 40 41  1  0
 41 42  2  0
 42 43  1  0
 43 44  2  0
 37 45  1  0
 45 46  1  0
  9 47  1  0
 47 48  2  0
 48  6  1  0
 33 14  1  0
 46 34  1  0
 31 18  1  0
 44 39  1  0
 29 24  1  0
M  CHG  1  37   1
M  END
>  <shape_align_shape_tanimoto>  (1) 
0.52010867531692229

>  <shape_align_color_tanimoto>  (1) 
0.056293285115919509

>  <metric>  (1) 
shape

>  <metric_score>  (1) 
0.520

>  <template_pid>  (1) 
2IGX

>  <template_shape_score>  (1) 
0.520

>  <template_color_score>  (1) 
0.056

>  <template_combo_score>  (1) 
0.288

$$$$
2IGX_color_pose
     RDKit          3D

 48 53  0  0  0  0  0  0  0  0999 V2000
   38.3541   44.9226   38.5137 C   0  0  0  0  0  0  0  0  0  0  0  0
   38.8398   45.7844   37.3356 C   0  0  0  0  0  0  0  0  0  0  0  0
   38.2236   47.1644   37.4096 C   0  0  0  0  0  0  0  0  0  0  0  0
   38.5667   47.9256   38.6406 C   0  0  0  0  0  0  0  0  0  0  0  0
   40.0386   48.2154   38.8217 C   0  0  0  0  0  0  0  0  0  0  0  0
   40.6008   49.0346   37.7390 C   0  0  0  0  0  0  0  0  0  0  0  0
   41.1724   48.5444   36.5904 C   0  0  0  0  0  0  0  0  0  0  0  0
   41.6840   49.3761   35.5909 C   0  0  0  0  0  0  0  0  0  0  0  0
   41.6158   50.7633   35.7587 C   0  0  0  0  0  0  0  0  0  0  0  0
   42.1349   51.5788   34.6912 C   0  0  0  0  0  0  0  0  0  0  0  0
   41.3035   51.8632   33.7558 O   0  0  0  0  0  0  0  0  0  0  0  0
   43.4321   52.1016   34.5399 N   0  0  0  0  0  0  0  0  0  0  0  0
   43.6615   52.8958   33.3197 C   0  0  0  0  0  0  0  0  0  0  0  0
   44.1602   52.0719   32.1992 C   0  0  0  0  0  0  0  0  0  0  0  0
   45.5286   51.8387   32.0696 C   0  0  0  0  0  0  0  0  0  0  0  0
   46.0484   51.0767   31.0379 C   0  0  0  0  0  0  0  0  0  0  0  0
   45.2247   50.5092   30.0827 C   0  0  0  0  0  0  0  0  0  0  0  0
   45.7283   49.6932   28.9830 C   0  0  0  0  0  0  0  0  0  0  0  0
   46.9604   49.8885   28.3943 C   0  0  0  0  0  0  0  0  0  0  0  0
   47.3559   49.0478   27.3445 C   0  0  0  0  0  0  0  0  0  0  0  0
   46.5053   48.0453   26.9242 C   0  0  0  0  0  0  0  0  0  0  0  0
   46.8609   47.1227   25.8284 C   0  0  0  0  0  0  0  0  0  0  0  0
   46.8699   47.5116   24.6283 O   0  0  0  0  0  0  0  0  0  0  0  0
   47.1905   45.7776   26.1990 N   0  0  0  0  0  0  0  0  0  0  0  0
   47.1716   45.3548   27.6062 C   0  0  0  0  0  0  0  0  0  0  0  0
   47.6681   43.9450   27.7159 C   0  0  0  0  0  0  0  0  0  0  0  0
   46.8320   43.0218   26.8491 C   0  0  0  0  0  0  0  0  0  0  0  0
   46.8186   43.4699   25.4149 C   0  0  0  0  0  0  0  0  0  0  0  0
   47.5519   44.7780   25.2106 C   0  0  0  0  0  0  0  0  0  0  0  0
   45.2615   47.8287   27.4997 C   0  0  0  0  0  0  0  0  0  0  0  0
   44.8895   48.6705   28.5360 C   0  0  0  0  0  0  0  0  0  0  0  0
   43.8633   50.7341   30.2005 C   0  0  0  0  0  0  0  0  0  0  0  0
   43.3605   51.4981   31.2376 C   0  0  0  0  0  0  0  0  0  0  0  0
   44.5396   51.9592   35.4146 C   0  0  1  0  0  0  0  0  0  0  0  0
   44.3762   52.4154   36.8247 C   0  0  0  0  0  0  0  0  0  0  0  0
   45.7331   52.4741   37.4735 C   0  0  0  0  0  0  0  0  0  0  0  0
   46.6407   51.4203   37.1972 N   0  0  2  0  0  0  0  0  0  0  0  0
   48.0133   51.9054   37.2737 C   0  0  0  0  0  0  0  0  0  0  0  0
   49.0351   50.8878   37.0632 C   0  0  0  0  0  0  0  0  0  0  0  0
   49.6341   50.5910   35.8604 C   0  0  0  0  0  0  0  0  0  0  0  0
   50.5930   49.6089   35.7148 C   0  0  0  0  0  0  0  0  0  0  0  0
   50.9598   48.9016   36.8223 C   0  0  0  0  0  0  0  0  0  0  0  0
   50.3700   49.1830   38.0460 C   0  0  0  0  0  0  0  0  0  0  0  0
   49.4374   50.1551   38.1285 N   0  0  0  0  0  0  0  0  0  0  0  0
   46.4159   50.5353   36.1293 C   0  0  0  0  0  0  0  0  0  0  0  0
   45.0119   50.5257   35.5688 C   0  0  0  0  0  0  0  0  0  0  0  0
   41.0549   51.2303   36.8874 N   0  0  0  0  0  0  0  0  0  0  0  0
   40.5640   50.4320   37.8463 C   0  0  0  0  0  0  0  0  0  0  0  0
  1  2  1  0
  2  3  1  0
  3  4  1  0
  4  5  1  0
  5  6  1  0
  6  7  2  0
  7  8  1  0
  8  9  2  0
  9 10  1  0
 10 11  2  0
 10 12  1  0
 12 13  1  0
 13 14  1  0
 14 15  2  0
 15 16  1  0
 16 17  2  0
 17 18  1  0
 18 19  2  0
 19 20  1  0
 20 21  2  0
 21 22  1  0
 22 23  2  0
 22 24  1  0
 24 25  1  0
 25 26  1  0
 26 27  1  0
 27 28  1  0
 28 29  1  0
 21 30  1  0
 30 31  2  0
 17 32  1  0
 32 33  2  0
 34 12  1  6
 34 35  1  0
 35 36  1  0
 36 37  1  0
 37 38  1  6
 38 39  1  0
 39 40  2  0
 40 41  1  0
 41 42  2  0
 42 43  1  0
 43 44  2  0
 37 45  1  0
 45 46  1  0
  9 47  1  0
 47 48  2  0
 48  6  1  0
 33 14  1  0
 46 34  1  0
 31 18  1  0
 44 39  1  0
 29 24  1  0
M  CHG  1  37   1
M  END
>  <shape_align_shape_tanimoto>  (2) 
0.37216782600434384

>  <shape_align_color_tanimoto>  (2) 
0.14081570034715268

>  <metric>  (2) 
color

>  <metric_score>  (2) 
0.141

>  <template_pid>  (2) 
2IGX

>  <template_shape_score>  (2) 
0.372

>  <template_color_score>  (2) 
0.141

>  <template_combo_score>  (2) 
0.256

$$$$
2IGX_combo_pose
     RDKit          3D

 48 53  0  0  0  0  0  0  0  0999 V2000
   48.2041   42.4473   40.8664 C   0  0  0  0  0  0  0  0  0  0  0  0
   49.4121   42.6418   40.0239 C   0  0  0  0  0  0  0  0  0  0  0  0
   50.1944   43.8951   40.2517 C   0  0  0  0  0  0  0  0  0  0  0  0
   49.5223   45.1860   39.9592 C   0  0  0  0  0  0  0  0  0  0  0  0
   48.2881   45.5413   40.7110 C   0  0  0  0  0  0  0  0  0  0  0  0
   47.8700   46.9061   40.1776 C   0  0  0  0  0  0  0  0  0  0  0  0
   47.0308   46.8744   39.0823 C   0  0  0  0  0  0  0  0  0  0  0  0
   46.6444   48.0930   38.5692 C   0  0  0  0  0  0  0  0  0  0  0  0
   47.0818   49.3064   39.1306 C   0  0  0  0  0  0  0  0  0  0  0  0
   46.5864   50.4948   38.4689 C   0  0  0  0  0  0  0  0  0  0  0  0
   45.3952   50.8335   38.7147 O   0  0  0  0  0  0  0  0  0  0  0  0
   47.3032   51.3143   37.5628 N   0  0  0  0  0  0  0  0  0  0  0  0
   46.5447   52.4228   36.9715 C   0  0  0  0  0  0  0  0  0  0  0  0
   46.0256   52.0380   35.6334 C   0  0  0  0  0  0  0  0  0  0  0  0
   46.8079   52.3656   34.5368 C   0  0  0  0  0  0  0  0  0  0  0  0
   46.4765   52.0211   33.2466 C   0  0  0  0  0  0  0  0  0  0  0  0
   45.3022   51.3136   33.0520 C   0  0  0  0  0  0  0  0  0  0  0  0
   45.0187   50.9166   31.6749 C   0  0  0  0  0  0  0  0  0  0  0  0
   45.3882   51.6410   30.5708 C   0  0  0  0  0  0  0  0  0  0  0  0
   45.1328   51.1739   29.2732 C   0  0  0  0  0  0  0  0  0  0  0  0
   44.4924   49.9538   29.1460 C   0  0  0  0  0  0  0  0  0  0  0  0
   44.1971   49.3411   27.8529 C   0  0  0  0  0  0  0  0  0  0  0  0
   43.0335   49.2579   27.3765 O   0  0  0  0  0  0  0  0  0  0  0  0
   45.3229   48.8143   27.1153 N   0  0  0  0  0  0  0  0  0  0  0  0
   46.6867   48.9193   27.6600 C   0  0  0  0  0  0  0  0  0  0  0  0
   47.5645   47.8465   27.0343 C   0  0  0  0  0  0  0  0  0  0  0  0
   46.6863   46.5865   26.9943 C   0  0  0  0  0  0  0  0  0  0  0  0
   45.7651   46.7941   25.8002 C   0  0  0  0  0  0  0  0  0  0  0  0
   45.1254   48.1639   25.8352 C   0  0  0  0  0  0  0  0  0  0  0  0
   44.1056   49.2015   30.2621 C   0  0  0  0  0  0  0  0  0  0  0  0
   44.3675   49.6804   31.5417 C   0  0  0  0  0  0  0  0  0  0  0  0
   44.5042   50.9781   34.1226 C   0  0  0  0  0  0  0  0  0  0  0  0
   44.8575   51.3378   35.4313 C   0  0  0  0  0  0  0  0  0  0  0  0
   48.6813   51.1638   37.2136 C   0  0  1  0  0  0  0  0  0  0  0  0
   49.6531   51.4880   38.3449 C   0  0  0  0  0  0  0  0  0  0  0  0
   50.8332   50.6038   38.4369 C   0  0  0  0  0  0  0  0  0  0  0  0
   51.3396   49.9965   37.2620 N   0  0  2  0  0  0  0  0  0  0  0  0
   52.6720   50.3963   36.8676 C   0  0  0  0  0  0  0  0  0  0  0  0
   52.8197   50.4877   35.3887 C   0  0  0  0  0  0  0  0  0  0  0  0
   53.1822   49.3639   34.6264 C   0  0  0  0  0  0  0  0  0  0  0  0
   53.3265   49.4646   33.2531 C   0  0  0  0  0  0  0  0  0  0  0  0
   53.1070   50.6865   32.6589 C   0  0  0  0  0  0  0  0  0  0  0  0
   52.7467   51.7966   33.4322 C   0  0  0  0  0  0  0  0  0  0  0  0
   52.6105   51.6718   34.7855 N   0  0  0  0  0  0  0  0  0  0  0  0
   50.4349   49.9579   36.1232 C   0  0  0  0  0  0  0  0  0  0  0  0
   49.0559   49.8039   36.7436 C   0  0  0  0  0  0  0  0  0  0  0  0
   47.8838   49.2440   40.1804 N   0  0  0  0  0  0  0  0  0  0  0  0
   48.3018   48.0774   40.7340 C   0  0  0  0  0  0  0  0  0  0  0  0
  1  2  1  0
  2  3  1  0
  3  4  1  0
  4  5  1  0
  5  6  1  0
  6  7  2  0
  7  8  1  0
  8  9  2  0
  9 10  1  0
 10 11  2  0
 10 12  1  0
 12 13  1  0
 13 14  1  0
 14 15  2  0
 15 16  1  0
 16 17  2  0
 17 18  1  0
 18 19  2  0
 19 20  1  0
 20 21  2  0
 21 22  1  0
 22 23  2  0
 22 24  1  0
 24 25  1  0
 25 26  1  0
 26 27  1  0
 27 28  1  0
 28 29  1  0
 21 30  1  0
 30 31  2  0
 17 32  1  0
 32 33  2  0
 34 12  1  1
 34 35  1  0
 35 36  1  0
 36 37  1  0
 37 38  1  6
 38 39  1  0
 39 40  2  0
 40 41  1  0
 41 42  2  0
 42 43  1  0
 43 44  2  0
 37 45  1  0
 45 46  1  0
  9 47  1  0
 47 48  2  0
 48  6  1  0
 33 14  1  0
 46 34  1  0
 31 18  1  0
 44 39  1  0
 29 24  1  0
M  CHG  1  37   1
M  END
>  <shape_align_shape_tanimoto>  (3) 
0.52010867531692229

>  <shape_align_color_tanimoto>  (3) 
0.056293285115919509

>  <metric>  (3) 
combo

>  <metric_score>  (3) 
0.288

>  <template_pid>  (3) 
2IGX

>  <template_shape_score>  (3) 
0.520

>  <template_color_score>  (3) 
0.056

>  <template_combo_score>  (3) 
0.288

$$$$
