1ZPA_shape_pose
     RDKit          3D

 51 54  0  0  0  0  0  0  0  0999 V2000
    6.5055    2.4752    6.5528 C   0  0  0  0  0  0  0  0  0  0  0  0
    6.4772    3.3421    7.6910 O   0  0  0  0  0  0  0  0  0  0  0  0
    6.7261    2.8208    8.9595 C   0  0  0  0  0  0  0  0  0  0  0  0
    6.6966    3.6627   10.0740 C   0  0  0  0  0  0  0  0  0  0  0  0
    6.9447    3.1469   11.3537 C   0  0  0  0  0  0  0  0  0  0  0  0
    7.2175    1.8048   11.5002 C   0  0  0  0  0  0  0  0  0  0  0  0
    7.5203    1.0784   13.0834 S   0  0  0  0  0  0  0  0  0  0  0  0
    8.6305    0.0888   12.8805 O   0  0  0  0  0  0  0  0  0  0  0  0
    8.0534    2.1577   13.9864 O   0  0  0  0  0  0  0  0  0  0  0  0
    6.1217    0.4114   13.7254 N   0  0  0  0  0  0  0  0  0  0  0  0
    5.0301    1.2267   13.9883 C   0  0  0  0  0  0  0  0  0  0  0  0
    4.0695    1.3218   12.8105 C   0  0  0  0  0  0  0  0  0  0  0  0
    2.9276    2.2467   13.2419 C   0  0  0  0  0  0  0  0  0  0  0  0
    3.4231   -0.0179   12.5128 C   0  0  0  0  0  0  0  0  0  0  0  0
    6.1833   -0.9065   14.2590 C   0  0  0  0  0  0  0  0  0  0  0  0
    6.4434   -0.9828   15.7421 C   0  0  1  0  0  0  0  0  0  0  0  0
    5.4942   -0.3579   16.5127 O   0  0  0  0  0  0  0  0  0  0  0  0
    6.8598   -2.3233   16.2488 C   0  0  2  0  0  0  0  0  0  0  0  0
    8.1451   -2.7456   15.5984 C   0  0  0  0  0  0  0  0  0  0  0  0
    8.6586   -4.0674   16.0358 C   0  0  0  0  0  0  0  0  0  0  0  0
    8.4351   -5.2434   15.3552 C   0  0  0  0  0  0  0  0  0  0  0  0
    8.9561   -6.4001   15.8767 C   0  0  0  0  0  0  0  0  0  0  0  0
    9.6913   -6.4482   17.0446 C   0  0  0  0  0  0  0  0  0  0  0  0
    9.9126   -5.2731   17.7208 C   0  0  0  0  0  0  0  0  0  0  0  0
    9.3958   -4.0826   17.2157 C   0  0  0  0  0  0  0  0  0  0  0  0
    5.8460   -3.3236   16.1886 N   0  0  0  0  0  0  0  0  0  0  0  0
    4.5248   -3.0333   16.0519 C   0  0  0  0  0  0  0  0  0  0  0  0
    3.7879   -4.2105   16.0229 C   0  0  0  0  0  0  0  0  0  0  0  0
    2.3070   -4.3695   15.8874 C   0  0  0  0  0  0  0  0  0  0  0  0
    2.0031   -4.4246   14.4509 N   0  0  0  0  0  0  0  0  0  0  0  0
    2.2658   -5.5782   13.6704 C   0  0  0  0  0  0  0  0  0  0  0  0
    2.7742   -6.5641   14.2624 O   0  0  0  0  0  0  0  0  0  0  0  0
    1.9687   -5.6398   12.2450 C   0  0  0  0  0  0  0  0  0  0  0  0
    1.3705   -4.6189   11.5455 C   0  0  0  0  0  0  0  0  0  0  0  0
    1.1060   -4.7033   10.1754 C   0  0  0  0  0  0  0  0  0  0  0  0
    1.4471   -5.8428    9.4689 C   0  0  0  0  0  0  0  0  0  0  0  0
    1.1640   -5.9260    8.0242 C   0  0  0  0  0  0  0  0  0  0  0  0
    2.2226   -5.3939    7.1969 N   0  0  0  0  0  0  0  0  0  0  0  0
    3.4435   -6.0301    6.9305 C   0  0  0  0  0  0  0  0  0  0  0  0
    3.7186   -7.1477    7.4073 O   0  0  0  0  0  0  0  0  0  0  0  0
    4.3555   -5.3811    6.1134 O   0  0  0  0  0  0  0  0  0  0  0  0
    5.6055   -5.8612    5.7530 C   0  0  0  0  0  0  0  0  0  0  0  0
    5.5574   -7.1827    5.0157 C   0  0  0  0  0  0  0  0  0  0  0  0
    6.6077   -5.9621    6.8546 C   0  0  0  0  0  0  0  0  0  0  0  0
    6.1643   -4.8580    4.7290 C   0  0  0  0  0  0  0  0  0  0  0  0
    2.0446   -6.8593   10.1758 C   0  0  0  0  0  0  0  0  0  0  0  0
    2.3092   -6.7797   11.5377 C   0  0  0  0  0  0  0  0  0  0  0  0
    4.6919   -5.1871   16.1445 N   0  0  0  0  0  0  0  0  0  0  0  0
    5.8897   -4.6402   16.2398 N   0  0  0  0  0  0  0  0  0  0  0  0
    7.2442    0.9825   10.3881 C   0  0  0  0  0  0  0  0  0  0  0  0
    7.0017    1.4659    9.1059 C   0  0  0  0  0  0  0  0  0  0  0  0
  1  2  1  0
  2  3  1  0
  3  4  2  0
  4  5  1  0
  5  6  2  0
  6  7  1  0
  7  8  2  0
  7  9  2  0
  7 10  1  0
 10 11  1  0
 11 12  1  0
 12 13  1  0
 12 14  1  0
 10 15  1  0
 15 16  1  0
 16 17  1  1
 16 18  1  0
 18 19  1  6
 19 20  1  0
 20 21  2  0
 21 22  1  0
 22 23  2  0
 23 24  1  0
 24 25  2  0
 18 26  1  0
 26 27  1  0
 27 28  2  0
 28 29  1  0
 29 30  1  0
 30 31  1  0
 31 32  2  0
 31 33  1  0
 33 34  2  0
 34 35  1  0
 35 36  2  0
 36 37  1  0
 37 38  1  0
 38 39  1  0
 39 40  2  0
 39 41  1  0
 41 42  1  0
 42 43  1  0
 42 44  1  0
 42 45  1  0
 36 46  1  0
 46 47  2  0
 28 48  1  0
 48 49  2  0
  6 50  1  0
 50 51  2  0
 51  3  1  0
 25 20  1  0
 49 26  1  0
 47 33  1  0
M  END
>  <shape_align_shape_tanimoto>  (1) 
0.47229072319540272

>  <shape_align_color_tanimoto>  (1) 
0.051917423728266264

>  <metric>  (1) 
shape

>  <metric_score>  (1) 
0.472

>  <template_pid>  (1) 
1ZPA

>  <template_shape_score>  (1) 
0.472

>  <template_color_score>  (1) 
0.052

>  <template_combo_score>  (1) 
0.262

$$$$
1ZPA_color_pose
     RDKit          3D

 51 54  0  0  0  0  0  0  0  0999 V2000
    6.9390   -8.6083   10.3516 C   0  0  0  0  0  0  0  0  0  0  0  0
    5.5569   -8.5070   10.6743 O   0  0  0  0  0  0  0  0  0  0  0  0
    5.0877   -8.0697   11.9013 C   0  0  0  0  0  0  0  0  0  0  0  0
    3.7386   -7.9562   12.1982 C   0  0  0  0  0  0  0  0  0  0  0  0
    3.3529   -7.5049   13.4626 C   0  0  0  0  0  0  0  0  0  0  0  0
    4.2621   -7.1661   14.4337 C   0  0  0  0  0  0  0  0  0  0  0  0
    3.7565   -6.5944   16.0330 S   0  0  0  0  0  0  0  0  0  0  0  0
    2.5523   -7.4070   16.4870 O   0  0  0  0  0  0  0  0  0  0  0  0
    4.8537   -6.9895   16.9601 O   0  0  0  0  0  0  0  0  0  0  0  0
    3.4967   -4.9639   16.0032 N   0  0  0  0  0  0  0  0  0  0  0  0
    2.4776   -4.4872   15.1209 C   0  0  0  0  0  0  0  0  0  0  0  0
    1.0879   -4.4406   15.6159 C   0  0  0  0  0  0  0  0  0  0  0  0
    0.1979   -3.9046   14.4776 C   0  0  0  0  0  0  0  0  0  0  0  0
    0.8351   -3.4900   16.7661 C   0  0  0  0  0  0  0  0  0  0  0  0
    4.1038   -4.0247   16.8326 C   0  0  0  0  0  0  0  0  0  0  0  0
    5.1749   -3.1592   16.2377 C   0  0  1  0  0  0  0  0  0  0  0  0
    5.5410   -2.1767   17.2396 O   0  0  0  0  0  0  0  0  0  0  0  0
    6.4561   -3.9185   15.9425 C   0  0  2  0  0  0  0  0  0  0  0  0
    7.1137   -4.4638   17.1660 C   0  0  0  0  0  0  0  0  0  0  0  0
    8.3647   -5.2163   16.9336 C   0  0  0  0  0  0  0  0  0  0  0  0
    9.5604   -4.4908   16.9002 C   0  0  0  0  0  0  0  0  0  0  0  0
   10.7879   -5.1339   16.7015 C   0  0  0  0  0  0  0  0  0  0  0  0
   10.8411   -6.4969   16.5365 C   0  0  0  0  0  0  0  0  0  0  0  0
    9.6645   -7.2007   16.5704 C   0  0  0  0  0  0  0  0  0  0  0  0
    8.4603   -6.5619   16.7655 C   0  0  0  0  0  0  0  0  0  0  0  0
    7.4086   -3.0919   15.2348 N   0  0  0  0  0  0  0  0  0  0  0  0
    7.7971   -1.8259   15.4950 C   0  0  0  0  0  0  0  0  0  0  0  0
    8.7282   -1.5273   14.5085 C   0  0  0  0  0  0  0  0  0  0  0  0
    9.4988   -0.2666   14.3237 C   0  0  0  0  0  0  0  0  0  0  0  0
    8.7435    0.6774   13.5540 N   0  0  0  0  0  0  0  0  0  0  0  0
    8.5670    0.5680   12.1323 C   0  0  0  0  0  0  0  0  0  0  0  0
    9.1070   -0.4130   11.5138 O   0  0  0  0  0  0  0  0  0  0  0  0
    7.7895    1.5392   11.3691 C   0  0  0  0  0  0  0  0  0  0  0  0
    7.5729    1.4164   10.0000 C   0  0  0  0  0  0  0  0  0  0  0  0
    6.8181    2.3584    9.2999 C   0  0  0  0  0  0  0  0  0  0  0  0
    6.2461    3.4534    9.9025 C   0  0  0  0  0  0  0  0  0  0  0  0
    5.4503    4.4961    9.2652 C   0  0  0  0  0  0  0  0  0  0  0  0
    4.0620    4.1425    9.0335 N   0  0  0  0  0  0  0  0  0  0  0  0
    3.1127    3.9478   10.0671 C   0  0  0  0  0  0  0  0  0  0  0  0
    3.4317    4.0519   11.2602 O   0  0  0  0  0  0  0  0  0  0  0  0
    1.8012    3.6321    9.7736 O   0  0  0  0  0  0  0  0  0  0  0  0
    0.8103    3.3762   10.7516 C   0  0  0  0  0  0  0  0  0  0  0  0
    1.1574    2.1166   11.5461 C   0  0  0  0  0  0  0  0  0  0  0  0
   -0.5679    3.2240   10.1855 C   0  0  0  0  0  0  0  0  0  0  0  0
    0.8523    4.4945   11.8096 C   0  0  0  0  0  0  0  0  0  0  0  0
    6.4676    3.5752   11.2786 C   0  0  0  0  0  0  0  0  0  0  0  0
    7.2169    2.6393   11.9703 C   0  0  0  0  0  0  0  0  0  0  0  0
    8.8597   -2.5992   13.7102 N   0  0  0  0  0  0  0  0  0  0  0  0
    8.0596   -3.5454   14.1535 N   0  0  0  0  0  0  0  0  0  0  0  0
    5.6031   -7.2947   14.0984 C   0  0  0  0  0  0  0  0  0  0  0  0
    5.9813   -7.7357   12.8609 C   0  0  0  0  0  0  0  0  0  0  0  0
  1  2  1  0
  2  3  1  0
  3  4  2  0
  4  5  1  0
  5  6  2  0
  6  7  1  0
  7  8  2  0
  7  9  2  0
  7 10  1  0
 10 11  1  0
 11 12  1  0
 12 13  1  0
 12 14  1  0
 10 15  1  0
 15 16  1  0
 16 17  1  1
 16 18  1  0
 18 19  1  1
 19 20  1  0
 20 21  2  0
 21 22  1  0
 22 23  2  0
 23 24  1  0
 24 25  2  0
 18 26  1  0
 26 27  1  0
 27 28  2  0
 28 29  1  0
 29 30  1  0
 30 31  1  0
 31 32  2  0
 31 33  1  0
 33 34  2  0
 34 35  1  0
 35 36  2  0
 36 37  1  0
 37 38  1  0
 38 39  1  0
 39 40  2  0
 39 41  1  0
 41 42  1  0
 42 43  1  0
 42 44  1  0
 42 45  1  0
 36 46  1  0
 46 47  2  0
 28 48  1  0
 48 49  2  0
  6 50  1  0
 50 51  2  0
 51  3  1  0
 25 20  1  0
 49 26  1  0
 47 33  1  0
M  END
>  <shape_align_shape_tanimoto>  (2) 
0.41149400568056321

>  <shape_align_color_tanimoto>  (2) 
0.1306542077535657

>  <metric>  (2) 
color

>  <metric_score>  (2) 
0.131

>  <template_pid>  (2) 
1ZPA

>  <template_shape_score>  (2) 
0.411

>  <template_color_score>  (2) 
0.131

>  <template_combo_score>  (2) 
0.271

$$$$
1ZPA_combo_pose
     RDKit          3D

 51 54  0  0  0  0  0  0  0  0999 V2000
    6.9390   -8.6083   10.3516 C   0  0  0  0  0  0  0  0  0  0  0  0
    5.5569   -8.5070   10.6743 O   0  0  0  0  0  0  0  0  0  0  0  0
    5.0877   -8.0697   11.9013 C   0  0  0  0  0  0  0  0  0  0  0  0
    3.7386   -7.9562   12.1982 C   0  0  0  0  0  0  0  0  0  0  0  0
    3.3529   -7.5049   13.4626 C   0  0  0  0  0  0  0  0  0  0  0  0
    4.2621   -7.1661   14.4337 C   0  0  0  0  0  0  0  0  0  0  0  0
    3.7565   -6.5944   16.0330 S   0  0  0  0  0  0  0  0  0  0  0  0
    2.5523   -7.4070   16.4870 O   0  0  0  0  0  0  0  0  0  0  0  0
    4.8537   -6.9895   16.9601 O   0  0  0  0  0  0  0  0  0  0  0  0
    3.4967   -4.9639   16.0032 N   0  0  0  0  0  0  0  0  0  0  0  0
    2.4776   -4.4872   15.1209 C   0  0  0  0  0  0  0  0  0  0  0  0
    1.0879   -4.4406   15.6159 C   0  0  0  0  0  0  0  0  0  0  0  0
    0.1979   -3.9046   14.4776 C   0  0  0  0  0  0  0  0  0  0  0  0
    0.8351   -3.4900   16.7661 C   0  0  0  0  0  0  0  0  0  0  0  0
    4.1038   -4.0247   16.8326 C   0  0  0  0  0  0  0  0  0  0  0  0
    5.1749   -3.1592   16.2377 C   0  0  1  0  0  0  0  0  0  0  0  0
    5.5410   -2.1767   17.2396 O   0  0  0  0  0  0  0  0  0  0  0  0
    6.4561   -3.9185   15.9425 C   0  0  2  0  0  0  0  0  0  0  0  0
    7.1137   -4.4638   17.1660 C   0  0  0  0  0  0  0  0  0  0  0  0
    8.3647   -5.2163   16.9336 C   0  0  0  0  0  0  0  0  0  0  0  0
    9.5604   -4.4908   16.9002 C   0  0  0  0  0  0  0  0  0  0  0  0
   10.7879   -5.1339   16.7015 C   0  0  0  0  0  0  0  0  0  0  0  0
   10.8411   -6.4969   16.5365 C   0  0  0  0  0  0  0  0  0  0  0  0
    9.6645   -7.2007   16.5704 C   0  0  0  0  0  0  0  0  0  0  0  0
    8.4603   -6.5619   16.7655 C   0  0  0  0  0  0  0  0  0  0  0  0
    7.4086   -3.0919   15.2348 N   0  0  0  0  0  0  0  0  0  0  0  0
    7.7971   -1.8259   15.4950 C   0  0  0  0  0  0  0  0  0  0  0  0
    8.7282   -1.5273   14.5085 C   0  0  0  0  0  0  0  0  0  0  0  0
    9.4988   -0.2666   14.3237 C   0  0  0  0  0  0  0  0  0  0  0  0
    8.7435    0.6774   13.5540 N   0  0  0  0  0  0  0  0  0  0  0  0
    8.5670    0.5680   12.1323 C   0  0  0  0  0  0  0  0  0  0  0  0
    9.1070   -0.4130   11.5138 O   0  0  0  0  0  0  0  0  0  0  0  0
    7.7895    1.5392   11.3691 C   0  0  0  0  0  0  0  0  0  0  0  0
    7.5729    1.4164   10.0000 C   0  0  0  0  0  0  0  0  0  0  0  0
    6.8181    2.3584    9.2999 C   0  0  0  0  0  0  0  0  0  0  0  0
    6.2461    3.4534    9.9025 C   0  0  0  0  0  0  0  0  0  0  0  0
    5.4503    4.4961    9.2652 C   0  0  0  0  0  0  0  0  0  0  0  0
    4.0620    4.1425    9.0335 N   0  0  0  0  0  0  0  0  0  0  0  0
    3.1127    3.9478   10.0671 C   0  0  0  0  0  0  0  0  0  0  0  0
    3.4317    4.0519   11.2602 O   0  0  0  0  0  0  0  0  0  0  0  0
    1.8012    3.6321    9.7736 O   0  0  0  0  0  0  0  0  0  0  0  0
    0.8103    3.3762   10.7516 C   0  0  0  0  0  0  0  0  0  0  0  0
    1.1574    2.1166   11.5461 C   0  0  0  0  0  0  0  0  0  0  0  0
   -0.5679    3.2240   10.1855 C   0  0  0  0  0  0  0  0  0  0  0  0
    0.8523    4.4945   11.8096 C   0  0  0  0  0  0  0  0  0  0  0  0
    6.4676    3.5752   11.2786 C   0  0  0  0  0  0  0  0  0  0  0  0
    7.2169    2.6393   11.9703 C   0  0  0  0  0  0  0  0  0  0  0  0
    8.8597   -2.5992   13.7102 N   0  0  0  0  0  0  0  0  0  0  0  0
    8.0596   -3.5454   14.1535 N   0  0  0  0  0  0  0  0  0  0  0  0
    5.6031   -7.2947   14.0984 C   0  0  0  0  0  0  0  0  0  0  0  0
    5.9813   -7.7357   12.8609 C   0  0  0  0  0  0  0  0  0  0  0  0
  1  2  1  0
  2  3  1  0
  3  4  2  0
  4  5  1  0
  5  6  2  0
  6  7  1  0
  7  8  2  0
  7  9  2  0
  7 10  1  0
 10 11  1  0
 11 12  1  0
 12 13  1  0
 12 14  1  0
 10 15  1  0
 15 16  1  0
 16 17  1  1
 16 18  1  0
 18 19  1  1
 19 20  1  0
 20 21  2  0
 21 22  1  0
 22 23  2  0
 23 24  1  0
 24 25  2  0
 18 26  1  0
 26 27  1  0
 27 28  2  0
 28 29  1  0
 29 30  1  0
 30 31  1  0
 31 32  2  0
 31 33  1  0
 33 34  2  0
 34 35  1  0
 35 36  2  0
 36 37  1  0
 37 38  1  0
 38 39  1  0
 39 40  2  0
 39 41  1  0
 41 42  1  0
 42 43  1  0
 42 44  1  0
 42 45  1  0
 36 46  1  0
 46 47  2  0
 28 48  1  0
 48 49  2  0
  6 50  1  0
 50 51  2  0
 51  3  1  0
 25 20  1  0
 49 26  1  0
 47 33  1  0
M  END
>  <shape_align_shape_tanimoto>  (3) 
0.41149400568056321

>  <shape_align_color_tanimoto>  (3) 
0.1306542077535657

>  <metric>  (3) 
combo

>  <metric_score>  (3) 
0.271

>  <template_pid>  (3) 
1ZPA

>  <template_shape_score>  (3) 
0.411

>  <template_color_score>  (3) 
0.131

>  <template_combo_score>  (3) 
0.271

$$$$
