5OH9_shape_pose
     RDKit          3D

  7  7  0  0  0  0  0  0  0  0999 V2000
  -31.3856  -22.7379   25.0351 O   0  0  0  0  0  0  0  0  0  0  0  0
  -31.9169  -23.9049   25.0321 C   0  0  0  0  0  0  0  0  0  0  0  0
  -33.1511  -24.1963   25.7770 C   0  0  0  0  0  0  0  0  0  0  0  0
  -33.0866  -26.0126   26.0254 S   0  0  0  0  0  0  0  0  0  0  0  0
  -31.6447  -26.2291   24.9584 C   0  0  0  0  0  0  0  0  0  0  0  0
  -31.0526  -27.3365   24.8653 O   0  0  0  0  0  0  0  0  0  0  0  0
  -31.4034  -24.9892   24.3473 N   0  0  0  0  0  0  0  0  0  0  0  0
  1  2  2  0
  2  3  1  0
  3  4  1  0
  4  5  1  0
  5  6  2  0
  5  7  1  0
  7  2  1  0
M  END
>  <shape_align_shape_tanimoto>  (1) 
0.27338056126833821

>  <shape_align_color_tanimoto>  (1) 
0.082399358783457832

>  <metric>  (1) 
shape

>  <metric_score>  (1) 
0.273

>  <template_pid>  (1) 
5OH9

>  <template_shape_score>  (1) 
0.273

>  <template_color_score>  (1) 
0.082

>  <template_combo_score>  (1) 
0.178

$$$$
5OH9_color_pose
     RDKit          3D

  7  7  0  0  0  0  0  0  0  0999 V2000
  -31.1973  -27.0230   24.4019 O   0  0  0  0  0  0  0  0  0  0  0  0
  -31.6280  -25.9771   25.0075 C   0  0  0  0  0  0  0  0  0  0  0  0
  -32.8230  -26.0155   25.8635 C   0  0  0  0  0  0  0  0  0  0  0  0
  -33.3477  -24.2734   25.9788 S   0  0  0  0  0  0  0  0  0  0  0  0
  -31.9243  -23.6552   25.0508 C   0  0  0  0  0  0  0  0  0  0  0  0
  -31.8667  -22.4646   24.6494 O   0  0  0  0  0  0  0  0  0  0  0  0
  -31.0349  -24.7300   24.9269 N   0  0  0  0  0  0  0  0  0  0  0  0
  1  2  2  0
  2  3  1  0
  3  4  1  0
  4  5  1  0
  5  6  2  0
  5  7  1  0
  7  2  1  0
M  END
>  <shape_align_shape_tanimoto>  (2) 
0.27215249811023712

>  <shape_align_color_tanimoto>  (2) 
0.16554412872181842

>  <metric>  (2) 
color

>  <metric_score>  (2) 
0.166

>  <template_pid>  (2) 
5OH9

>  <template_shape_score>  (2) 
0.272

>  <template_color_score>  (2) 
0.166

>  <template_combo_score>  (2) 
0.219

$$$$
5OH9_combo_pose
     RDKit          3D

  7  7  0  0  0  0  0  0  0  0999 V2000
  -31.1973  -27.0230   24.4019 O   0  0  0  0  0  0  0  0  0  0  0  0
  -31.6280  -25.9771   25.0075 C   0  0  0  0  0  0  0  0  0  0  0  0
  -32.8230  -26.0155   25.8635 C   0  0  0  0  0  0  0  0  0  0  0  0
  -33.3477  -24.2734   25.9788 S   0  0  0  0  0  0  0  0  0  0  0  0
  -31.9243  -23.6552   25.0508 C   0  0  0  0  0  0  0  0  0  0  0  0
  -31.8667  -22.4646   24.6494 O   0  0  0  0  0  0  0  0  0  0  0  0
  -31.0349  -24.7300   24.9269 N   0  0  0  0  0  0  0  0  0  0  0  0
  1  2  2  0
  2  3  1  0
  3  4  1  0
  4  5  1  0
  5  6  2  0
  5  7  1  0
  7  2  1  0
M  END
>  <shape_align_shape_tanimoto>  (3) 
0.27215249811023712

>  <shape_align_color_tanimoto>  (3) 
0.16554412872181842

>  <metric>  (3) 
combo

>  <metric_score>  (3) 
0.219

>  <template_pid>  (3) 
5OH9

>  <template_shape_score>  (3) 
0.272

>  <template_color_score>  (3) 
0.166

>  <template_combo_score>  (3) 
0.219

$$$$
