1BMQ_shape_pose
     RDKit          3D

 38 40  0  0  0  0  0  0  0  0999 V2000
   21.8532   -3.1016   13.2473 C   0  0  0  0  0  0  0  0  0  0  0  0
   21.3873   -4.5615   13.2527 C   0  0  0  0  0  0  0  0  0  0  0  0
   21.7942   -5.1139   11.9076 C   0  0  0  0  0  0  0  0  0  0  0  0
   19.8501   -4.5893   13.3652 C   0  0  2  0  0  0  0  0  0  0  0  0
   19.4490   -3.9260   14.5771 N   0  0  0  0  0  0  0  0  0  0  0  0
   19.0215   -2.5665   14.6399 C   0  0  0  0  0  0  0  0  0  0  0  0
   18.9649   -1.8612   13.5892 O   0  0  0  0  0  0  0  0  0  0  0  0
   18.6363   -1.9340   15.9006 C   0  0  0  0  0  0  0  0  0  0  0  0
   18.1113   -0.6617   15.9104 C   0  0  0  0  0  0  0  0  0  0  0  0
   17.7429    0.0088   17.0578 C   0  0  0  0  0  0  0  0  0  0  0  0
   17.9130   -0.6426   18.2802 C   0  0  0  0  0  0  0  0  0  0  0  0
   17.5620   -0.0140   19.4518 C   0  0  0  0  0  0  0  0  0  0  0  0
   17.7565   -0.7144   20.6432 C   0  0  0  0  0  0  0  0  0  0  0  0
   18.2786   -1.9865   20.6657 C   0  0  0  0  0  0  0  0  0  0  0  0
   18.6238   -2.5972   19.4747 C   0  0  0  0  0  0  0  0  0  0  0  0
   18.4377   -1.9149   18.2674 C   0  0  0  0  0  0  0  0  0  0  0  0
   18.8024   -2.5742   17.1098 C   0  0  0  0  0  0  0  0  0  0  0  0
   19.3306   -5.9351   13.2589 C   0  0  0  0  0  0  0  0  0  0  0  0
   20.0351   -6.6718   12.3915 O   0  0  0  0  0  0  0  0  0  0  0  0
   18.3073   -6.6693   13.8121 N   0  0  0  0  0  0  0  0  0  0  0  0
   18.3193   -8.1852   13.5146 C   0  0  0  0  0  0  0  0  0  0  0  0
   17.9881   -8.7794   14.8405 C   0  0  0  0  0  0  0  0  0  0  0  0
   17.5352   -7.5889   15.7032 C   0  0  0  0  0  0  0  0  0  0  0  0
   17.1186   -6.6441   14.5856 C   0  0  1  0  0  0  0  0  0  0  0  0
   16.4131   -5.4525   14.9252 C   0  0  0  0  0  0  0  0  0  0  0  0
   16.4737   -4.3175   14.4114 O   0  0  0  0  0  0  0  0  0  0  0  0
   15.4662   -5.5373   16.0374 N   0  0  0  0  0  0  0  0  0  0  0  0
   14.7161   -4.3629   16.4244 C   0  0  2  0  0  0  0  0  0  0  0  0
   15.1050   -3.9016   17.8260 C   0  0  0  0  0  0  0  0  0  0  0  0
   14.3312   -2.7724   18.0939 O   0  0  0  0  0  0  0  0  0  0  0  0
   13.2263   -4.5969   16.3326 C   0  0  0  0  0  0  0  0  0  0  0  0
   12.7806   -4.9503   14.9686 C   0  0  0  0  0  0  0  0  0  0  0  0
   13.5274   -5.0736   13.9773 O   0  0  0  0  0  0  0  0  0  0  0  0
   11.3890   -5.1677   14.7691 N   0  0  0  0  0  0  0  0  0  0  0  0
   10.7559   -5.5854   13.2232 S   0  0  0  0  0  0  0  0  0  0  0  0
   12.0239   -5.7107   12.0049 C   0  0  0  0  0  0  0  0  0  0  0  0
    9.7954   -4.5028   12.7901 O   0  0  0  0  0  0  0  0  0  0  0  0
    9.9754   -6.8835   13.2681 O   0  0  0  0  0  0  0  0  0  0  0  0
  1  2  1  0
  2  3  1  0
  2  4  1  0
  4  5  1  1
  5  6  1  0
  6  7  2  0
  6  8  1  0
  8  9  2  0
  9 10  1  0
 10 11  2  0
 11 12  1  0
 12 13  2  0
 13 14  1  0
 14 15  2  0
 15 16  1  0
 16 17  2  0
  4 18  1  0
 18 19  2  0
 18 20  1  0
 20 21  1  0
 21 22  1  0
 22 23  1  0
 23 24  1  0
 24 25  1  1
 25 26  2  0
 25 27  1  0
 27 28  1  0
 28 29  1  1
 29 30  1  0
 28 31  1  0
 31 32  1  0
 32 33  2  0
 32 34  1  0
 34 35  1  0
 35 36  1  0
 35 37  2  0
 35 38  2  0
 17  8  1  0
 24 20  1  0
 16 11  1  0
M  END
>  <shape_align_shape_tanimoto>  (1) 
0.48001820673938589

>  <shape_align_color_tanimoto>  (1) 
0.023938252256670029

>  <metric>  (1) 
shape

>  <metric_score>  (1) 
0.480

>  <template_pid>  (1) 
1BMQ

>  <template_shape_score>  (1) 
0.480

>  <template_color_score>  (1) 
0.024

>  <template_combo_score>  (1) 
0.252

$$$$
1BMQ_color_pose
     RDKit          3D

 38 40  0  0  0  0  0  0  0  0999 V2000
   19.3039   -1.6908   19.9563 C   0  0  0  0  0  0  0  0  0  0  0  0
   18.6948   -2.1762   18.6178 C   0  0  0  0  0  0  0  0  0  0  0  0
   19.3762   -3.4342   18.2492 C   0  0  0  0  0  0  0  0  0  0  0  0
   18.6541   -1.0500   17.6476 C   0  0  2  0  0  0  0  0  0  0  0  0
   17.8095   -0.0165   18.2999 N   0  0  0  0  0  0  0  0  0  0  0  0
   16.4461   -0.1984   18.5525 C   0  0  0  0  0  0  0  0  0  0  0  0
   15.8105   -1.2639   18.2454 O   0  0  0  0  0  0  0  0  0  0  0  0
   15.6005    0.8269   19.2022 C   0  0  0  0  0  0  0  0  0  0  0  0
   14.2588    0.5727   19.3931 C   0  0  0  0  0  0  0  0  0  0  0  0
   13.4098    1.5050   20.0033 C   0  0  0  0  0  0  0  0  0  0  0  0
   13.9331    2.7121   20.4248 C   0  0  0  0  0  0  0  0  0  0  0  0
   13.1329    3.6780   21.0391 C   0  0  0  0  0  0  0  0  0  0  0  0
   13.6860    4.8748   21.4495 C   0  0  0  0  0  0  0  0  0  0  0  0
   15.0269    5.1640   21.2745 C   0  0  0  0  0  0  0  0  0  0  0  0
   15.8245    4.1994   20.6614 C   0  0  0  0  0  0  0  0  0  0  0  0
   15.2808    2.9807   20.2391 C   0  0  0  0  0  0  0  0  0  0  0  0
   16.1032    2.0337   19.6284 C   0  0  0  0  0  0  0  0  0  0  0  0
   18.1748   -1.3144   16.3002 C   0  0  0  0  0  0  0  0  0  0  0  0
   17.0276   -0.7984   16.0023 O   0  0  0  0  0  0  0  0  0  0  0  0
   18.8083   -2.0599   15.2755 N   0  0  0  0  0  0  0  0  0  0  0  0
   20.1099   -2.7270   15.3026 C   0  0  0  0  0  0  0  0  0  0  0  0
   20.6189   -2.5536   13.8821 C   0  0  0  0  0  0  0  0  0  0  0  0
   19.3670   -2.7325   13.0934 C   0  0  0  0  0  0  0  0  0  0  0  0
   18.2612   -2.2876   13.9843 C   0  0  1  0  0  0  0  0  0  0  0  0
   17.1949   -3.3225   13.9437 C   0  0  0  0  0  0  0  0  0  0  0  0
   16.7181   -3.5979   12.8139 O   0  0  0  0  0  0  0  0  0  0  0  0
   16.6921   -4.0019   15.0593 N   0  0  0  0  0  0  0  0  0  0  0  0
   15.6625   -5.0060   15.0227 C   0  0  2  0  0  0  0  0  0  0  0  0
   14.4317   -4.6379   15.7945 C   0  0  0  0  0  0  0  0  0  0  0  0
   14.6715   -4.4166   17.1476 O   0  0  0  0  0  0  0  0  0  0  0  0
   16.2132   -6.2703   15.6123 C   0  0  0  0  0  0  0  0  0  0  0  0
   17.3960   -6.8030   14.8890 C   0  0  0  0  0  0  0  0  0  0  0  0
   17.8928   -6.2607   13.8696 O   0  0  0  0  0  0  0  0  0  0  0  0
   17.9737   -8.0022   15.4133 N   0  0  0  0  0  0  0  0  0  0  0  0
   19.3664   -8.7013   14.6292 S   0  0  0  0  0  0  0  0  0  0  0  0
   19.8723  -10.1638   15.4858 C   0  0  0  0  0  0  0  0  0  0  0  0
   18.9953   -9.0103   13.2248 O   0  0  0  0  0  0  0  0  0  0  0  0
   20.4897   -7.6926   14.6301 O   0  0  0  0  0  0  0  0  0  0  0  0
  1  2  1  0
  2  3  1  0
  2  4  1  0
  4  5  1  1
  5  6  1  0
  6  7  2  0
  6  8  1  0
  8  9  2  0
  9 10  1  0
 10 11  2  0
 11 12  1  0
 12 13  2  0
 13 14  1  0
 14 15  2  0
 15 16  1  0
 16 17  2  0
  4 18  1  0
 18 19  2  0
 18 20  1  0
 20 21  1  0
 21 22  1  0
 22 23  1  0
 23 24  1  0
 24 25  1  1
 25 26  2  0
 25 27  1  0
 27 28  1  0
 28 29  1  1
 29 30  1  0
 28 31  1  0
 31 32  1  0
 32 33  2  0
 32 34  1  0
 34 35  1  0
 35 36  1  0
 35 37  2  0
 35 38  2  0
 17  8  1  0
 24 20  1  0
 16 11  1  0
M  END
>  <shape_align_shape_tanimoto>  (2) 
0.38053873794491561

>  <shape_align_color_tanimoto>  (2) 
0.10196020554725982

>  <metric>  (2) 
color

>  <metric_score>  (2) 
0.102

>  <template_pid>  (2) 
1BMQ

>  <template_shape_score>  (2) 
0.381

>  <template_color_score>  (2) 
0.102

>  <template_combo_score>  (2) 
0.241

$$$$
1BMQ_combo_pose
     RDKit          3D

 38 40  0  0  0  0  0  0  0  0999 V2000
   17.2217   -3.5589   20.4880 C   0  0  0  0  0  0  0  0  0  0  0  0
   17.8161   -2.3530   19.7959 C   0  0  0  0  0  0  0  0  0  0  0  0
   19.2932   -2.5267   19.7154 C   0  0  0  0  0  0  0  0  0  0  0  0
   17.1480   -2.0674   18.4664 C   0  0  2  0  0  0  0  0  0  0  0  0
   17.2573   -3.1454   17.5437 N   0  0  0  0  0  0  0  0  0  0  0  0
   16.0440   -3.7889   17.1058 C   0  0  0  0  0  0  0  0  0  0  0  0
   14.9146   -3.4041   17.5315 O   0  0  0  0  0  0  0  0  0  0  0  0
   16.0579   -4.9007   16.1630 C   0  0  0  0  0  0  0  0  0  0  0  0
   14.8399   -5.4439   15.8103 C   0  0  0  0  0  0  0  0  0  0  0  0
   14.7635   -6.5144   14.9104 C   0  0  0  0  0  0  0  0  0  0  0  0
   15.9169   -7.0389   14.3645 C   0  0  0  0  0  0  0  0  0  0  0  0
   15.7953   -8.0950   13.4806 C   0  0  0  0  0  0  0  0  0  0  0  0
   16.9610   -8.6263   12.9279 C   0  0  0  0  0  0  0  0  0  0  0  0
   18.2093   -8.0979   13.2653 C   0  0  0  0  0  0  0  0  0  0  0  0
   18.2933   -7.0337   14.1593 C   0  0  0  0  0  0  0  0  0  0  0  0
   17.1352   -6.4930   14.7194 C   0  0  0  0  0  0  0  0  0  0  0  0
   17.1798   -5.4360   15.6107 C   0  0  0  0  0  0  0  0  0  0  0  0
   17.5943   -0.7522   18.0022 C   0  0  0  0  0  0  0  0  0  0  0  0
   17.5086    0.2107   18.8439 O   0  0  0  0  0  0  0  0  0  0  0  0
   18.1072   -0.4213   16.7363 N   0  0  0  0  0  0  0  0  0  0  0  0
   18.5216    0.9521   16.4027 C   0  0  0  0  0  0  0  0  0  0  0  0
   18.6795    1.0233   14.9236 C   0  0  0  0  0  0  0  0  0  0  0  0
   18.1290   -0.2584   14.3671 C   0  0  0  0  0  0  0  0  0  0  0  0
   18.3512   -1.1942   15.5440 C   0  0  1  0  0  0  0  0  0  0  0  0
   19.7273   -1.7649   15.4818 C   0  0  0  0  0  0  0  0  0  0  0  0
   20.0663   -2.4449   14.4796 O   0  0  0  0  0  0  0  0  0  0  0  0
   20.6898   -1.5776   16.5113 N   0  0  0  0  0  0  0  0  0  0  0  0
   21.9991   -2.1451   16.4068 C   0  0  2  0  0  0  0  0  0  0  0  0
   22.2707   -3.1887   17.4646 C   0  0  0  0  0  0  0  0  0  0  0  0
   23.5536   -3.7336   17.3529 O   0  0  0  0  0  0  0  0  0  0  0  0
   23.0992   -1.1269   16.4459 C   0  0  0  0  0  0  0  0  0  0  0  0
   23.1349   -0.3152   17.6827 C   0  0  0  0  0  0  0  0  0  0  0  0
   22.3198   -0.4253   18.6296 O   0  0  0  0  0  0  0  0  0  0  0  0
   24.1691    0.6544   17.7958 N   0  0  0  0  0  0  0  0  0  0  0  0
   24.2371    1.6268   19.2426 S   0  0  0  0  0  0  0  0  0  0  0  0
   23.2629    3.1085   19.0134 C   0  0  0  0  0  0  0  0  0  0  0  0
   25.6456    2.0711   19.4889 O   0  0  0  0  0  0  0  0  0  0  0  0
   23.6947    0.8664   20.4186 O   0  0  0  0  0  0  0  0  0  0  0  0
  1  2  1  0
  2  3  1  0
  2  4  1  0
  4  5  1  6
  5  6  1  0
  6  7  2  0
  6  8  1  0
  8  9  2  0
  9 10  1  0
 10 11  2  0
 11 12  1  0
 12 13  2  0
 13 14  1  0
 14 15  2  0
 15 16  1  0
 16 17  2  0
  4 18  1  0
 18 19  2  0
 18 20  1  0
 20 21  1  0
 21 22  1  0
 22 23  1  0
 23 24  1  0
 24 25  1  1
 25 26  2  0
 25 27  1  0
 27 28  1  0
 28 29  1  1
 29 30  1  0
 28 31  1  0
 31 32  1  0
 32 33  2  0
 32 34  1  0
 34 35  1  0
 35 36  1  0
 35 37  2  0
 35 38  2  0
 17  8  1  0
 24 20  1  0
 16 11  1  0
M  END
>  <shape_align_shape_tanimoto>  (3) 
0.46121971237274295

>  <shape_align_color_tanimoto>  (3) 
0.056995693879199463

>  <metric>  (3) 
combo

>  <metric_score>  (3) 
0.259

>  <template_pid>  (3) 
1BMQ

>  <template_shape_score>  (3) 
0.461

>  <template_color_score>  (3) 
0.057

>  <template_combo_score>  (3) 
0.259

$$$$
