5Y3N_shape_pose
     RDKit          3D

 22 25  0  0  0  0  0  0  0  0999 V2000
    5.1706   45.5496  -15.7887 N   0  0  0  0  0  0  0  0  0  0  0  0
    3.7897   45.2393  -15.8736 C   0  0  0  0  0  0  0  0  0  0  0  0
    2.9167   45.9125  -16.6381 N   0  0  0  0  0  0  0  0  0  0  0  0
    1.5982   45.5844  -16.6931 C   0  0  0  0  0  0  0  0  0  0  0  0
    0.4634   46.4671  -17.6932 Cl  0  0  0  0  0  0  0  0  0  0  0  0
    1.1412   44.5235  -15.9377 C   0  0  0  0  0  0  0  0  0  0  0  0
   -0.0733   43.9027  -15.7279 C   0  0  0  0  0  0  0  0  0  0  0  0
    0.1396   42.8897  -14.8474 N   0  0  0  0  0  0  0  0  0  0  0  0
    1.4111   42.8326  -14.4889 N   0  0  0  0  0  0  0  0  0  0  0  0
    2.0644   41.9128  -13.5766 C   0  0  0  0  0  0  0  0  0  0  0  0
    2.0344   42.4595  -12.1858 C   0  0  0  0  0  0  0  0  0  0  0  0
    1.4521   43.6732  -11.8814 C   0  0  0  0  0  0  0  0  0  0  0  0
    1.4642   44.1087  -10.5790 C   0  0  0  0  0  0  0  0  0  0  0  0
    2.0490   43.3505   -9.5761 C   0  0  0  0  0  0  0  0  0  0  0  0
    2.6343   42.1334   -9.8743 C   0  0  0  0  0  0  0  0  0  0  0  0
    2.6273   41.6860  -11.1829 C   0  0  0  0  0  0  0  0  0  0  0  0
    3.4316   40.0134  -11.5929 Br  0  0  0  0  0  0  0  0  0  0  0  0
    1.8925   44.0686   -8.3815 O   0  0  0  0  0  0  0  0  0  0  0  0
    1.7987   45.4384   -8.7900 C   0  0  0  0  0  0  0  0  0  0  0  0
    0.9721   45.2650   -9.9507 O   0  0  0  0  0  0  0  0  0  0  0  0
    2.0488   43.8390  -15.1555 C   0  0  0  0  0  0  0  0  0  0  0  0
    3.3531   44.1957  -15.1273 N   0  0  0  0  0  0  0  0  0  0  0  0
  1  2  1  0
  2  3  2  0
  3  4  1  0
  4  5  1  0
  4  6  2  0
  6  7  1  0
  7  8  2  0
  8  9  1  0
  9 10  1  0
 10 11  1  0
 11 12  2  0
 12 13  1  0
 13 14  2  0
 14 15  1  0
 15 16  2  0
 16 17  1  0
 14 18  1  0
 18 19  1  0
 19 20  1  0
  9 21  1  0
 21 22  2  0
 22  2  1  0
 21  6  1  0
 16 11  1  0
 20 13  1  0
M  END
>  <shape_align_shape_tanimoto>  (1) 
0.16871161860150857

>  <shape_align_color_tanimoto>  (1) 
0.0090083507558783877

>  <metric>  (1) 
shape

>  <metric_score>  (1) 
0.169

>  <template_pid>  (1) 
5Y3N

>  <template_shape_score>  (1) 
0.169

>  <template_color_score>  (1) 
0.009

>  <template_combo_score>  (1) 
0.089

$$$$
5Y3N_color_pose
     RDKit          3D

 22 25  0  0  0  0  0  0  0  0999 V2000
   -1.5769   41.9310  -10.8514 N   0  0  0  0  0  0  0  0  0  0  0  0
   -0.2387   41.8282  -11.3242 C   0  0  0  0  0  0  0  0  0  0  0  0
    0.7703   41.3743  -10.5592 N   0  0  0  0  0  0  0  0  0  0  0  0
    2.0328   41.2728  -11.0051 C   0  0  0  0  0  0  0  0  0  0  0  0
    3.3418   40.6897  -10.0378 Cl  0  0  0  0  0  0  0  0  0  0  0  0
    2.2747   41.6571  -12.3026 C   0  0  0  0  0  0  0  0  0  0  0  0
    3.4088   41.6983  -13.1072 C   0  0  0  0  0  0  0  0  0  0  0  0
    3.0146   42.1734  -14.3033 N   0  0  0  0  0  0  0  0  0  0  0  0
    1.7393   42.4381  -14.3369 N   0  0  0  0  0  0  0  0  0  0  0  0
    0.8916   42.9559  -15.3896 C   0  0  0  0  0  0  0  0  0  0  0  0
    0.8313   44.4376  -15.3747 C   0  0  0  0  0  0  0  0  0  0  0  0
   -0.2431   45.1518  -14.8887 C   0  0  0  0  0  0  0  0  0  0  0  0
   -0.2038   46.5290  -14.9181 C   0  0  0  0  0  0  0  0  0  0  0  0
    0.9175   47.1708  -15.4371 C   0  0  0  0  0  0  0  0  0  0  0  0
    2.0062   46.4850  -15.9302 C   0  0  0  0  0  0  0  0  0  0  0  0
    1.9429   45.1067  -15.8894 C   0  0  0  0  0  0  0  0  0  0  0  0
    3.4496   44.1383  -16.5712 Br  0  0  0  0  0  0  0  0  0  0  0  0
    0.6783   48.5578  -15.3393 O   0  0  0  0  0  0  0  0  0  0  0  0
   -0.3132   48.7397  -14.3312 C   0  0  0  0  0  0  0  0  0  0  0  0
   -1.0955   47.5458  -14.5179 O   0  0  0  0  0  0  0  0  0  0  0  0
    1.2498   42.1255  -13.1008 C   0  0  0  0  0  0  0  0  0  0  0  0
   -0.0124   42.2061  -12.5935 N   0  0  0  0  0  0  0  0  0  0  0  0
  1  2  1  0
  2  3  2  0
  3  4  1  0
  4  5  1  0
  4  6  2  0
  6  7  1  0
  7  8  2  0
  8  9  1  0
  9 10  1  0
 10 11  1  0
 11 12  2  0
 12 13  1  0
 13 14  2  0
 14 15  1  0
 15 16  2  0
 16 17  1  0
 14 18  1  0
 18 19  1  0
 19 20  1  0
  9 21  1  0
 21 22  2  0
 22  2  1  0
 21  6  1  0
 16 11  1  0
 20 13  1  0
M  END
>  <shape_align_shape_tanimoto>  (2) 
0.14930857145325574

>  <shape_align_color_tanimoto>  (2) 
0.048705704866348683

>  <metric>  (2) 
color

>  <metric_score>  (2) 
0.049

>  <template_pid>  (2) 
5Y3N

>  <template_shape_score>  (2) 
0.149

>  <template_color_score>  (2) 
0.049

>  <template_combo_score>  (2) 
0.099

$$$$
5Y3N_combo_pose
     RDKit          3D

 22 25  0  0  0  0  0  0  0  0999 V2000
   -2.4698   39.4842  -10.1280 N   0  0  0  0  0  0  0  0  0  0  0  0
   -2.4423   40.9008  -10.2158 C   0  0  0  0  0  0  0  0  0  0  0  0
   -3.5721   41.6145  -10.1052 N   0  0  0  0  0  0  0  0  0  0  0  0
   -3.4897   42.9441  -10.2033 C   0  0  0  0  0  0  0  0  0  0  0  0
   -4.9255   43.9637  -10.0795 Cl  0  0  0  0  0  0  0  0  0  0  0  0
   -2.2899   43.5770  -10.4111 C   0  0  0  0  0  0  0  0  0  0  0  0
   -1.8841   44.8862  -10.5629 C   0  0  0  0  0  0  0  0  0  0  0  0
   -0.5425   44.8939  -10.7552 N   0  0  0  0  0  0  0  0  0  0  0  0
   -0.0717   43.6421  -10.7330 N   0  0  0  0  0  0  0  0  0  0  0  0
    1.3279   43.2587  -10.8933 C   0  0  0  0  0  0  0  0  0  0  0  0
    1.6139   42.9425  -12.3261 C   0  0  0  0  0  0  0  0  0  0  0  0
    0.7805   43.5017  -13.2751 C   0  0  0  0  0  0  0  0  0  0  0  0
    0.9885   43.2118  -14.6063 C   0  0  0  0  0  0  0  0  0  0  0  0
    2.0354   42.3590  -15.0000 C   0  0  0  0  0  0  0  0  0  0  0  0
    2.8649   41.8055  -14.0405 C   0  0  0  0  0  0  0  0  0  0  0  0
    2.6417   42.1056  -12.7121 C   0  0  0  0  0  0  0  0  0  0  0  0
    3.7705   41.3619  -11.3572 Br  0  0  0  0  0  0  0  0  0  0  0  0
    1.9665   42.2776  -16.3975 O   0  0  0  0  0  0  0  0  0  0  0  0
    0.5931   42.5344  -16.7493 C   0  0  0  0  0  0  0  0  0  0  0  0
    0.3478   43.5956  -15.8052 O   0  0  0  0  0  0  0  0  0  0  0  0
   -1.1358   42.8110  -10.5211 C   0  0  0  0  0  0  0  0  0  0  0  0
   -1.2340   41.4871  -10.4213 N   0  0  0  0  0  0  0  0  0  0  0  0
  1  2  1  0
  2  3  2  0
  3  4  1  0
  4  5  1  0
  4  6  2  0
  6  7  1  0
  7  8  2  0
  8  9  1  0
  9 10  1  0
 10 11  1  0
 11 12  2  0
 12 13  1  0
 13 14  2  0
 14 15  1  0
 15 16  2  0
 16 17  1  0
 14 18  1  0
 18 19  1  0
 19 20  1  0
  9 21  1  0
 21 22  2  0
 22  2  1  0
 21  6  1  0
 16 11  1  0
 20 13  1  0
M  END
>  <shape_align_shape_tanimoto>  (3) 
0.15437058583756649

>  <shape_align_color_tanimoto>  (3) 
0.043933054622080393

>  <metric>  (3) 
combo

>  <metric_score>  (3) 
0.099

>  <template_pid>  (3) 
5Y3N

>  <template_shape_score>  (3) 
0.154

>  <template_color_score>  (3) 
0.044

>  <template_combo_score>  (3) 
0.099

$$$$
