3G6G_shape_pose
     RDKit          3D

 46 51  0  0  0  0  0  0  0  0999 V2000
  -94.2328  -17.2391    2.8364 C   0  0  0  0  0  0  0  0  0  0  0  0
  -93.1096  -17.8569    3.3919 O   0  0  0  0  0  0  0  0  0  0  0  0
  -92.7486  -17.6269    4.7050 C   0  0  0  0  0  0  0  0  0  0  0  0
  -91.6335  -18.2628    5.1951 C   0  0  0  0  0  0  0  0  0  0  0  0
  -91.1793  -18.1101    6.4826 C   0  0  0  0  0  0  0  0  0  0  0  0
  -91.8611  -17.2779    7.3542 C   0  0  0  0  0  0  0  0  0  0  0  0
  -91.4285  -17.0800    8.7132 N   0  0  0  0  0  0  0  0  0  0  0  0
  -92.1553  -16.2062    9.5765 C   0  0  0  0  0  0  0  0  0  0  0  0
  -93.1420  -16.6182   10.3864 N   0  0  0  0  0  0  0  0  0  0  0  0
  -93.7966  -15.7353   11.1780 C   0  0  0  0  0  0  0  0  0  0  0  0
  -93.4205  -14.4529   11.1163 N   0  0  0  0  0  0  0  0  0  0  0  0
  -92.4259  -14.0068   10.3064 C   0  0  0  0  0  0  0  0  0  0  0  0
  -92.1349  -12.5882   10.3246 C   0  0  0  0  0  0  0  0  0  0  0  0
  -92.8614  -11.7163   11.1051 C   0  0  0  0  0  0  0  0  0  0  0  0
  -92.6546  -10.3573   11.1427 C   0  0  0  0  0  0  0  0  0  0  0  0
  -91.6444   -9.8510   10.3348 C   0  0  0  0  0  0  0  0  0  0  0  0
  -90.9158  -10.6668    9.5621 N   0  0  0  0  0  0  0  0  0  0  0  0
  -91.1357  -12.0063    9.5403 C   0  0  0  0  0  0  0  0  0  0  0  0
  -90.3125  -12.7988    8.7390 N   0  0  0  0  0  0  0  0  0  0  0  0
  -89.9589  -12.5911    7.4006 C   0  0  0  0  0  0  0  0  0  0  0  0
  -88.6078  -12.4247    7.0648 C   0  0  0  0  0  0  0  0  0  0  0  0
  -88.2162  -12.2467    5.7659 C   0  0  0  0  0  0  0  0  0  0  0  0
  -86.8923  -12.0544    5.3263 N   0  0  0  0  0  0  0  0  0  0  0  0
  -85.7477  -11.8900    6.1125 C   0  0  0  0  0  0  0  0  0  0  0  0
  -85.8320  -11.8944    7.3610 O   0  0  0  0  0  0  0  0  0  0  0  0
  -84.4000  -11.7043    5.5569 C   0  0  0  0  0  0  0  0  0  0  0  0
  -84.1156  -11.8360    4.2174 C   0  0  0  0  0  0  0  0  0  0  0  0
  -82.8544  -11.6594    3.6812 C   0  0  0  0  0  0  0  0  0  0  0  0
  -81.7905  -11.3296    4.5111 C   0  0  0  0  0  0  0  0  0  0  0  0
  -80.4522  -11.1566    3.9131 C   0  0  0  0  0  0  0  0  0  0  0  0
  -80.1608   -9.8503    3.4305 N   0  0  1  0  0  0  0  0  0  0  0  0
  -81.3068   -9.0519    3.0580 C   0  0  0  0  0  0  0  0  0  0  0  0
  -80.7097   -7.8386    2.3289 C   0  0  0  0  0  0  0  0  0  0  0  0
  -80.1479   -7.0160    3.3922 N   0  0  2  0  0  0  0  0  0  0  0  0
  -79.6487   -5.7587    2.8390 C   0  0  0  0  0  0  0  0  0  0  0  0
  -79.0389   -7.7448    3.9412 C   0  0  0  0  0  0  0  0  0  0  0  0
  -79.4878   -9.0993    4.4723 C   0  0  0  0  0  0  0  0  0  0  0  0
  -82.0616  -11.1939    5.8557 C   0  0  0  0  0  0  0  0  0  0  0  0
  -83.3246  -11.3728    6.3826 C   0  0  0  0  0  0  0  0  0  0  0  0
  -89.2328  -12.2417    4.8126 C   0  0  0  0  0  0  0  0  0  0  0  0
  -90.5608  -12.4036    5.1390 C   0  0  0  0  0  0  0  0  0  0  0  0
  -90.9502  -12.5823    6.4503 C   0  0  0  0  0  0  0  0  0  0  0  0
  -92.3811  -12.7501    6.7803 C   0  0  0  0  0  0  0  0  0  0  0  0
  -91.8164  -14.9112    9.5516 N   0  0  0  0  0  0  0  0  0  0  0  0
  -92.9889  -16.6306    6.8708 C   0  0  0  0  0  0  0  0  0  0  0  0
  -93.4343  -16.7977    5.5631 C   0  0  0  0  0  0  0  0  0  0  0  0
  1  2  1  0
  2  3  1  0
  3  4  2  0
  4  5  1  0
  5  6  2  0
  6  7  1  0
  7  8  1  0
  8  9  2  0
  9 10  1  0
 10 11  2  0
 11 12  1  0
 12 13  1  0
 13 14  2  0
 14 15  1  0
 15 16  2  0
 16 17  1  0
 17 18  2  0
 18 19  1  0
 19 20  1  0
 20 21  2  0
 21 22  1  0
 22 23  1  0
 23 24  1  0
 24 25  2  0
 24 26  1  0
 26 27  2  0
 27 28  1  0
 28 29  2  0
 29 30  1  0
 31 30  1  1
 31 32  1  0
 32 33  1  0
 33 34  1  0
 34 35  1  6
 34 36  1  0
 36 37  1  0
 29 38  1  0
 38 39  2  0
 22 40  2  0
 40 41  1  0
 41 42  2  0
 42 43  1  0
 12 44  2  0
  6 45  1  0
 45 46  2  0
 46  3  1  0
 44  8  1  0
 18 13  1  0
 42 20  1  0
 39 26  1  0
 37 31  1  0
M  CHG  2  31   1  34   1
M  END
>  <shape_align_shape_tanimoto>  (1) 
0.55113351855833725

>  <shape_align_color_tanimoto>  (1) 
0.050001714919743923

>  <metric>  (1) 
shape

>  <metric_score>  (1) 
0.551

>  <template_pid>  (1) 
3G6G

>  <template_shape_score>  (1) 
0.551

>  <template_color_score>  (1) 
0.050

>  <template_combo_score>  (1) 
0.301

$$$$
3G6G_color_pose
     RDKit          3D

 46 51  0  0  0  0  0  0  0  0999 V2000
  -80.3259   -6.4882   -0.5502 C   0  0  0  0  0  0  0  0  0  0  0  0
  -79.3656   -7.3417   -0.0015 O   0  0  0  0  0  0  0  0  0  0  0  0
  -79.5526   -8.3342    0.9214 C   0  0  0  0  0  0  0  0  0  0  0  0
  -78.4484   -9.0593    1.3271 C   0  0  0  0  0  0  0  0  0  0  0  0
  -78.5007  -10.0789    2.2453 C   0  0  0  0  0  0  0  0  0  0  0  0
  -79.7172  -10.4224    2.8143 C   0  0  0  0  0  0  0  0  0  0  0  0
  -79.8516  -11.4541    3.7792 N   0  0  0  0  0  0  0  0  0  0  0  0
  -81.1170  -11.8457    4.3284 C   0  0  0  0  0  0  0  0  0  0  0  0
  -81.8082  -12.9046    3.8615 N   0  0  0  0  0  0  0  0  0  0  0  0
  -82.9892  -13.2255    4.4028 C   0  0  0  0  0  0  0  0  0  0  0  0
  -83.4618  -12.4623    5.4211 N   0  0  0  0  0  0  0  0  0  0  0  0
  -82.7669  -11.4105    5.8784 C   0  0  0  0  0  0  0  0  0  0  0  0
  -83.2454  -10.5552    6.9599 C   0  0  0  0  0  0  0  0  0  0  0  0
  -82.5253   -9.4853    7.4145 C   0  0  0  0  0  0  0  0  0  0  0  0
  -82.9537   -8.6635    8.4281 C   0  0  0  0  0  0  0  0  0  0  0  0
  -84.1848   -8.9700    8.9921 C   0  0  0  0  0  0  0  0  0  0  0  0
  -84.9101  -10.0058    8.5713 N   0  0  0  0  0  0  0  0  0  0  0  0
  -84.4597  -10.8059    7.5614 C   0  0  0  0  0  0  0  0  0  0  0  0
  -85.3173  -11.8748    7.1975 N   0  0  0  0  0  0  0  0  0  0  0  0
  -86.6425  -11.7464    6.7610 C   0  0  0  0  0  0  0  0  0  0  0  0
  -87.6223  -12.3671    7.5512 C   0  0  0  0  0  0  0  0  0  0  0  0
  -88.9653  -12.3071    7.2060 C   0  0  0  0  0  0  0  0  0  0  0  0
  -89.9803  -12.9110    8.0013 N   0  0  0  0  0  0  0  0  0  0  0  0
  -90.4193  -14.2490    7.8470 C   0  0  0  0  0  0  0  0  0  0  0  0
  -89.8833  -14.9758    6.9482 O   0  0  0  0  0  0  0  0  0  0  0  0
  -91.4696  -14.8212    8.6891 C   0  0  0  0  0  0  0  0  0  0  0  0
  -92.1589  -14.0727    9.6316 C   0  0  0  0  0  0  0  0  0  0  0  0
  -93.1428  -14.6339   10.4192 C   0  0  0  0  0  0  0  0  0  0  0  0
  -93.4851  -15.9872   10.2969 C   0  0  0  0  0  0  0  0  0  0  0  0
  -94.5433  -16.4850   11.1769 C   0  0  0  0  0  0  0  0  0  0  0  0
  -94.1218  -16.9702   12.4510 N   0  0  1  0  0  0  0  0  0  0  0  0
  -94.4308  -18.3924   12.6482 C   0  0  0  0  0  0  0  0  0  0  0  0
  -94.1402  -18.6643   14.1107 C   0  0  0  0  0  0  0  0  0  0  0  0
  -92.7161  -18.6199   14.3084 N   0  0  2  0  0  0  0  0  0  0  0  0
  -92.3948  -17.9465   15.5712 C   0  0  0  0  0  0  0  0  0  0  0  0
  -92.0245  -17.9803   13.2100 C   0  0  0  0  0  0  0  0  0  0  0  0
  -92.7624  -16.7092   12.8056 C   0  0  0  0  0  0  0  0  0  0  0  0
  -92.8042  -16.7336    9.3637 C   0  0  0  0  0  0  0  0  0  0  0  0
  -91.8142  -16.1479    8.5782 C   0  0  0  0  0  0  0  0  0  0  0  0
  -89.3912  -11.6376    6.0754 C   0  0  0  0  0  0  0  0  0  0  0  0
  -88.4179  -11.0338    5.3105 C   0  0  0  0  0  0  0  0  0  0  0  0
  -87.0770  -11.0909    5.6518 C   0  0  0  0  0  0  0  0  0  0  0  0
  -86.1053  -10.4146    4.7820 C   0  0  0  0  0  0  0  0  0  0  0  0
  -81.5824  -11.0908    5.3341 N   0  0  0  0  0  0  0  0  0  0  0  0
  -80.8303   -9.7029    2.4150 C   0  0  0  0  0  0  0  0  0  0  0  0
  -80.7581   -8.6816    1.4909 C   0  0  0  0  0  0  0  0  0  0  0  0
  1  2  1  0
  2  3  1  0
  3  4  2  0
  4  5  1  0
  5  6  2  0
  6  7  1  0
  7  8  1  0
  8  9  2  0
  9 10  1  0
 10 11  2  0
 11 12  1  0
 12 13  1  0
 13 14  2  0
 14 15  1  0
 15 16  2  0
 16 17  1  0
 17 18  2  0
 18 19  1  0
 19 20  1  0
 20 21  2  0
 21 22  1  0
 22 23  1  0
 23 24  1  0
 24 25  2  0
 24 26  1  0
 26 27  2  0
 27 28  1  0
 28 29  2  0
 29 30  1  0
 31 30  1  6
 31 32  1  0
 32 33  1  0
 33 34  1  0
 34 35  1  1
 34 36  1  0
 36 37  1  0
 29 38  1  0
 38 39  2  0
 22 40  2  0
 40 41  1  0
 41 42  2  0
 42 43  1  0
 12 44  2  0
  6 45  1  0
 45 46  2  0
 46  3  1  0
 44  8  1  0
 18 13  1  0
 42 20  1  0
 39 26  1  0
 37 31  1  0
M  CHG  2  31   1  34   1
M  END
>  <shape_align_shape_tanimoto>  (2) 
0.49086924994694914

>  <shape_align_color_tanimoto>  (2) 
0.16314801607471238

>  <metric>  (2) 
color

>  <metric_score>  (2) 
0.163

>  <template_pid>  (2) 
3G6G

>  <template_shape_score>  (2) 
0.491

>  <template_color_score>  (2) 
0.163

>  <template_combo_score>  (2) 
0.327

$$$$
3G6G_combo_pose
     RDKit          3D

 46 51  0  0  0  0  0  0  0  0999 V2000
  -80.3259   -6.4882   -0.5502 C   0  0  0  0  0  0  0  0  0  0  0  0
  -79.3656   -7.3417   -0.0015 O   0  0  0  0  0  0  0  0  0  0  0  0
  -79.5526   -8.3342    0.9214 C   0  0  0  0  0  0  0  0  0  0  0  0
  -78.4484   -9.0593    1.3271 C   0  0  0  0  0  0  0  0  0  0  0  0
  -78.5007  -10.0789    2.2453 C   0  0  0  0  0  0  0  0  0  0  0  0
  -79.7172  -10.4224    2.8143 C   0  0  0  0  0  0  0  0  0  0  0  0
  -79.8516  -11.4541    3.7792 N   0  0  0  0  0  0  0  0  0  0  0  0
  -81.1170  -11.8457    4.3284 C   0  0  0  0  0  0  0  0  0  0  0  0
  -81.8082  -12.9046    3.8615 N   0  0  0  0  0  0  0  0  0  0  0  0
  -82.9892  -13.2255    4.4028 C   0  0  0  0  0  0  0  0  0  0  0  0
  -83.4618  -12.4623    5.4211 N   0  0  0  0  0  0  0  0  0  0  0  0
  -82.7669  -11.4105    5.8784 C   0  0  0  0  0  0  0  0  0  0  0  0
  -83.2454  -10.5552    6.9599 C   0  0  0  0  0  0  0  0  0  0  0  0
  -82.5253   -9.4853    7.4145 C   0  0  0  0  0  0  0  0  0  0  0  0
  -82.9537   -8.6635    8.4281 C   0  0  0  0  0  0  0  0  0  0  0  0
  -84.1848   -8.9700    8.9921 C   0  0  0  0  0  0  0  0  0  0  0  0
  -84.9101  -10.0058    8.5713 N   0  0  0  0  0  0  0  0  0  0  0  0
  -84.4597  -10.8059    7.5614 C   0  0  0  0  0  0  0  0  0  0  0  0
  -85.3173  -11.8748    7.1975 N   0  0  0  0  0  0  0  0  0  0  0  0
  -86.6425  -11.7464    6.7610 C   0  0  0  0  0  0  0  0  0  0  0  0
  -87.6223  -12.3671    7.5512 C   0  0  0  0  0  0  0  0  0  0  0  0
  -88.9653  -12.3071    7.2060 C   0  0  0  0  0  0  0  0  0  0  0  0
  -89.9803  -12.9110    8.0013 N   0  0  0  0  0  0  0  0  0  0  0  0
  -90.4193  -14.2490    7.8470 C   0  0  0  0  0  0  0  0  0  0  0  0
  -89.8833  -14.9758    6.9482 O   0  0  0  0  0  0  0  0  0  0  0  0
  -91.4696  -14.8212    8.6891 C   0  0  0  0  0  0  0  0  0  0  0  0
  -92.1589  -14.0727    9.6316 C   0  0  0  0  0  0  0  0  0  0  0  0
  -93.1428  -14.6339   10.4192 C   0  0  0  0  0  0  0  0  0  0  0  0
  -93.4851  -15.9872   10.2969 C   0  0  0  0  0  0  0  0  0  0  0  0
  -94.5433  -16.4850   11.1769 C   0  0  0  0  0  0  0  0  0  0  0  0
  -94.1218  -16.9702   12.4510 N   0  0  1  0  0  0  0  0  0  0  0  0
  -94.4308  -18.3924   12.6482 C   0  0  0  0  0  0  0  0  0  0  0  0
  -94.1402  -18.6643   14.1107 C   0  0  0  0  0  0  0  0  0  0  0  0
  -92.7161  -18.6199   14.3084 N   0  0  2  0  0  0  0  0  0  0  0  0
  -92.3948  -17.9465   15.5712 C   0  0  0  0  0  0  0  0  0  0  0  0
  -92.0245  -17.9803   13.2100 C   0  0  0  0  0  0  0  0  0  0  0  0
  -92.7624  -16.7092   12.8056 C   0  0  0  0  0  0  0  0  0  0  0  0
  -92.8042  -16.7336    9.3637 C   0  0  0  0  0  0  0  0  0  0  0  0
  -91.8142  -16.1479    8.5782 C   0  0  0  0  0  0  0  0  0  0  0  0
  -89.3912  -11.6376    6.0754 C   0  0  0  0  0  0  0  0  0  0  0  0
  -88.4179  -11.0338    5.3105 C   0  0  0  0  0  0  0  0  0  0  0  0
  -87.0770  -11.0909    5.6518 C   0  0  0  0  0  0  0  0  0  0  0  0
  -86.1053  -10.4146    4.7820 C   0  0  0  0  0  0  0  0  0  0  0  0
  -81.5824  -11.0908    5.3341 N   0  0  0  0  0  0  0  0  0  0  0  0
  -80.8303   -9.7029    2.4150 C   0  0  0  0  0  0  0  0  0  0  0  0
  -80.7581   -8.6816    1.4909 C   0  0  0  0  0  0  0  0  0  0  0  0
  1  2  1  0
  2  3  1  0
  3  4  2  0
  4  5  1  0
  5  6  2  0
  6  7  1  0
  7  8  1  0
  8  9  2  0
  9 10  1  0
 10 11  2  0
 11 12  1  0
 12 13  1  0
 13 14  2  0
 14 15  1  0
 15 16  2  0
 16 17  1  0
 17 18  2  0
 18 19  1  0
 19 20  1  0
 20 21  2  0
 21 22  1  0
 22 23  1  0
 23 24  1  0
 24 25  2  0
 24 26  1  0
 26 27  2  0
 27 28  1  0
 28 29  2  0
 29 30  1  0
 31 30  1  6
 31 32  1  0
 32 33  1  0
 33 34  1  0
 34 35  1  1
 34 36  1  0
 36 37  1  0
 29 38  1  0
 38 39  2  0
 22 40  2  0
 40 41  1  0
 41 42  2  0
 42 43  1  0
 12 44  2  0
  6 45  1  0
 45 46  2  0
 46  3  1  0
 44  8  1  0
 18 13  1  0
 42 20  1  0
 39 26  1  0
 37 31  1  0
M  CHG  2  31   1  34   1
M  END
>  <shape_align_shape_tanimoto>  (3) 
0.49086924994694914

>  <shape_align_color_tanimoto>  (3) 
0.16314801607471238

>  <metric>  (3) 
combo

>  <metric_score>  (3) 
0.327

>  <template_pid>  (3) 
3G6G

>  <template_shape_score>  (3) 
0.491

>  <template_color_score>  (3) 
0.163

>  <template_combo_score>  (3) 
0.327

$$$$
