6QTQ_shape_pose
     RDKit          3D

 50 51  0  0  0  0  0  0  0  0999 V2000
   67.5088   63.6483   52.5490 C   0  0  0  0  0  0  0  0  0  0  0  0
   66.9708   63.9743   53.8994 C   0  0  0  0  0  0  0  0  0  0  0  0
   66.4701   62.6536   54.4749 C   0  0  0  0  0  0  0  0  0  0  0  0
   66.0308   65.0740   54.0626 C   0  0  2  0  0  0  0  0  0  0  0  0
   65.6741   65.2257   55.5004 N   0  0  0  0  0  0  0  0  0  0  0  0
   64.5802   64.5907   56.1237 C   0  0  0  0  0  0  0  0  0  0  0  0
   63.7480   63.8321   55.5655 O   0  0  0  0  0  0  0  0  0  0  0  0
   64.3894   64.8243   57.5704 C   0  0  2  0  0  0  0  0  0  0  0  0
   65.6060   64.2663   58.3385 C   0  0  0  0  0  0  0  0  0  0  0  0
   63.1991   64.1604   58.0127 N   0  0  0  0  0  0  0  0  0  0  0  0
   62.6205   64.4227   59.3079 C   0  0  0  0  0  0  0  0  0  0  0  0
   63.1603   65.2452   60.1120 O   0  0  0  0  0  0  0  0  0  0  0  0
   61.3677   63.6771   59.6495 C   0  0  2  0  0  0  0  0  0  0  0  0
   60.1706   64.2976   59.0292 C   0  0  0  0  0  0  0  0  0  0  0  0
   60.1585   64.3676   57.5672 C   0  0  0  0  0  0  0  0  0  0  0  0
   59.6022   63.4027   56.7554 C   0  0  0  0  0  0  0  0  0  0  0  0
   59.6699   63.5611   55.3916 C   0  0  0  0  0  0  0  0  0  0  0  0
   60.2646   64.6349   54.7822 C   0  0  0  0  0  0  0  0  0  0  0  0
   60.2706   64.6875   53.4004 O   0  0  0  0  0  0  0  0  0  0  0  0
   60.8280   65.6129   55.5875 C   0  0  0  0  0  0  0  0  0  0  0  0
   60.7693   65.4704   56.9569 C   0  0  0  0  0  0  0  0  0  0  0  0
   61.2379   63.7959   61.1079 N   0  0  0  0  0  0  0  0  0  0  0  0
   61.6365   62.6679   61.8466 C   0  0  0  0  0  0  0  0  0  0  0  0
   62.0891   61.6337   61.2245 O   0  0  0  0  0  0  0  0  0  0  0  0
   61.5997   62.5139   63.3230 C   0  0  1  0  0  0  0  0  0  0  0  0
   62.4557   61.3933   63.7338 N   0  0  0  0  0  0  0  0  0  0  0  0
   61.8698   63.7267   64.1256 C   0  0  0  0  0  0  0  0  0  0  0  0
   61.8723   63.5752   65.5823 C   0  0  0  0  0  0  0  0  0  0  0  0
   60.7652   63.2668   66.4633 C   0  0  0  0  0  0  0  0  0  0  0  0
   59.9031   62.1755   66.4002 N   0  0  0  0  0  0  0  0  0  0  0  0
   58.7666   61.9563   65.5727 C   0  0  0  0  0  0  0  0  0  0  0  0
   57.9900   60.7631   65.6303 N   0  0  0  0  0  0  0  0  0  0  0  0
   58.4066   62.8683   64.7208 N   0  0  0  0  0  0  0  0  0  0  0  0
   64.7565   65.0965   53.3107 C   0  0  0  0  0  0  0  0  0  0  0  0
   63.6467   65.4702   53.8426 O   0  0  0  0  0  0  0  0  0  0  0  0
   64.6303   64.7095   51.9480 N   0  0  0  0  0  0  0  0  0  0  0  0
   63.3248   64.7395   51.2692 C   0  0  2  0  0  0  0  0  0  0  0  0
   62.7793   63.3554   51.2105 C   0  0  0  0  0  0  0  0  0  0  0  0
   63.5316   62.4644   51.7264 O   0  0  0  0  0  0  0  0  0  0  0  0
   61.5262   63.0119   50.6396 N   0  0  0  0  0  0  0  0  0  0  0  0
   60.5370   63.8412   49.9851 C   0  0  0  0  0  0  0  0  0  0  0  0
   59.2686   63.0637   49.8683 C   0  0  0  0  0  0  0  0  0  0  0  0
   59.5858   61.6690   50.3293 C   0  0  0  0  0  0  0  0  0  0  0  0
   61.0454   61.6137   50.6803 C   0  0  1  0  0  0  0  0  0  0  0  0
   61.7872   60.7486   49.7633 C   0  0  0  0  0  0  0  0  0  0  0  0
   62.5081   61.2603   48.8752 O   0  0  0  0  0  0  0  0  0  0  0  0
   61.6492   59.3647   49.9299 O   0  0  0  0  0  0  0  0  0  0  0  0
   63.5663   65.3757   49.9382 C   0  0  0  0  0  0  0  0  0  0  0  0
   64.5706   64.5966   49.1122 C   0  0  0  0  0  0  0  0  0  0  0  0
   64.2298   66.7296   50.2339 C   0  0  0  0  0  0  0  0  0  0  0  0
  1  2  1  0
  2  3  1  0
  2  4  1  0
  4  5  1  1
  5  6  1  0
  6  7  2  0
  6  8  1  0
  8  9  1  1
  8 10  1  0
 10 11  1  0
 11 12  2  0
 11 13  1  0
 13 14  1  6
 14 15  1  0
 15 16  2  0
 16 17  1  0
 17 18  2  0
 18 19  1  0
 18 20  1  0
 20 21  2  0
 13 22  1  0
 22 23  1  0
 23 24  2  0
 23 25  1  0
 25 26  1  1
 25 27  1  0
 27 28  1  0
 28 29  1  0
 29 30  1  0
 30 31  1  0
 31 32  1  0
 31 33  2  0
  4 34  1  0
 34 35  2  0
 34 36  1  0
 37 36  1  6
 37 38  1  0
 38 39  2  0
 38 40  1  0
 40 41  1  0
 41 42  1  0
 42 43  1  0
 43 44  1  0
 44 45  1  6
 45 46  2  0
 45 47  1  0
 37 48  1  0
 48 49  1  0
 48 50  1  0
 21 15  1  0
 44 40  1  0
M  CHG  3  26   1  33   1  47  -1
M  END
>  <shape_align_shape_tanimoto>  (1) 
0.37704544085718461

>  <shape_align_color_tanimoto>  (1) 
0.0064622424413795371

>  <metric>  (1) 
shape

>  <metric_score>  (1) 
0.377

>  <template_pid>  (1) 
6QTQ

>  <template_shape_score>  (1) 
0.377

>  <template_color_score>  (1) 
0.006

>  <template_combo_score>  (1) 
0.192

$$$$
6QTQ_color_pose
     RDKit          3D

 50 51  0  0  0  0  0  0  0  0999 V2000
   61.6414   62.4685   47.8135 C   0  0  0  0  0  0  0  0  0  0  0  0
   62.2722   62.7441   49.1357 C   0  0  0  0  0  0  0  0  0  0  0  0
   61.9095   61.8000   50.2328 C   0  0  0  0  0  0  0  0  0  0  0  0
   61.9783   64.1752   49.5765 C   0  0  2  0  0  0  0  0  0  0  0  0
   62.6499   64.3253   50.8713 N   0  0  0  0  0  0  0  0  0  0  0  0
   63.8600   64.9973   51.0579 C   0  0  0  0  0  0  0  0  0  0  0  0
   64.3863   65.5201   50.0091 O   0  0  0  0  0  0  0  0  0  0  0  0
   64.6113   65.1730   52.3042 C   0  0  2  0  0  0  0  0  0  0  0  0
   65.8919   64.3079   52.0828 C   0  0  0  0  0  0  0  0  0  0  0  0
   63.8878   64.6624   53.4162 N   0  0  0  0  0  0  0  0  0  0  0  0
   64.3894   64.8918   54.7647 C   0  0  0  0  0  0  0  0  0  0  0  0
   65.4824   65.5296   54.9272 O   0  0  0  0  0  0  0  0  0  0  0  0
   63.6014   64.3634   55.9063 C   0  0  2  0  0  0  0  0  0  0  0  0
   62.4101   65.3072   56.1496 C   0  0  0  0  0  0  0  0  0  0  0  0
   61.6372   64.7562   57.2858 C   0  0  0  0  0  0  0  0  0  0  0  0
   62.0034   65.1829   58.5553 C   0  0  0  0  0  0  0  0  0  0  0  0
   61.3054   64.6992   59.6373 C   0  0  0  0  0  0  0  0  0  0  0  0
   60.2541   63.7981   59.4400 C   0  0  0  0  0  0  0  0  0  0  0  0
   59.5853   63.3441   60.5757 O   0  0  0  0  0  0  0  0  0  0  0  0
   59.9028   63.3847   58.1832 C   0  0  0  0  0  0  0  0  0  0  0  0
   60.6132   63.8772   57.0785 C   0  0  0  0  0  0  0  0  0  0  0  0
   64.3496   64.3181   57.1524 N   0  0  0  0  0  0  0  0  0  0  0  0
   64.4119   63.0357   57.7822 C   0  0  0  0  0  0  0  0  0  0  0  0
   63.8423   62.0303   57.2670 O   0  0  0  0  0  0  0  0  0  0  0  0
   65.1314   62.7810   59.0585 C   0  0  1  0  0  0  0  0  0  0  0  0
   65.7963   63.9523   59.5936 N   0  0  0  0  0  0  0  0  0  0  0  0
   64.1961   62.1481   60.0509 C   0  0  0  0  0  0  0  0  0  0  0  0
   64.9641   61.8839   61.3524 C   0  0  0  0  0  0  0  0  0  0  0  0
   64.0566   61.2624   62.3893 C   0  0  0  0  0  0  0  0  0  0  0  0
   64.8399   61.0070   63.6088 N   0  0  0  0  0  0  0  0  0  0  0  0
   64.1510   60.4307   64.7115 C   0  0  0  0  0  0  0  0  0  0  0  0
   64.7673   60.1228   65.9424 N   0  0  0  0  0  0  0  0  0  0  0  0
   62.8869   60.1645   64.5888 N   0  0  0  0  0  0  0  0  0  0  0  0
   60.5363   64.3727   49.7107 C   0  0  0  0  0  0  0  0  0  0  0  0
   59.8042   64.0960   48.7215 O   0  0  0  0  0  0  0  0  0  0  0  0
   59.9634   64.8709   50.9456 N   0  0  0  0  0  0  0  0  0  0  0  0
   58.4797   64.9796   50.9034 C   0  0  2  0  0  0  0  0  0  0  0  0
   58.2478   66.4452   50.7081 C   0  0  0  0  0  0  0  0  0  0  0  0
   59.2913   67.1669   50.8933 O   0  0  0  0  0  0  0  0  0  0  0  0
   57.0481   67.0667   50.3540 N   0  0  0  0  0  0  0  0  0  0  0  0
   55.7241   66.5485   50.0450 C   0  0  0  0  0  0  0  0  0  0  0  0
   54.8565   67.4414   50.9107 C   0  0  0  0  0  0  0  0  0  0  0  0
   55.6765   68.6750   51.1966 C   0  0  0  0  0  0  0  0  0  0  0  0
   56.8585   68.5215   50.2213 C   0  0  1  0  0  0  0  0  0  0  0  0
   57.9901   69.3257   50.6568 C   0  0  0  0  0  0  0  0  0  0  0  0
   58.9762   69.5050   49.8736 O   0  0  0  0  0  0  0  0  0  0  0  0
   57.9789   69.8973   51.9430 O   0  0  0  0  0  0  0  0  0  0  0  0
   58.0207   64.5422   52.2722 C   0  0  0  0  0  0  0  0  0  0  0  0
   58.5351   65.4576   53.3694 C   0  0  0  0  0  0  0  0  0  0  0  0
   56.5789   64.2094   52.4189 C   0  0  0  0  0  0  0  0  0  0  0  0
  1  2  1  0
  2  3  1  0
  2  4  1  0
  4  5  1  1
  5  6  1  0
  6  7  2  0
  6  8  1  0
  8  9  1  6
  8 10  1  0
 10 11  1  0
 11 12  2  0
 11 13  1  0
 13 14  1  1
 14 15  1  0
 15 16  2  0
 16 17  1  0
 17 18  2  0
 18 19  1  0
 18 20  1  0
 20 21  2  0
 13 22  1  0
 22 23  1  0
 23 24  2  0
 23 25  1  0
 25 26  1  1
 25 27  1  0
 27 28  1  0
 28 29  1  0
 29 30  1  0
 30 31  1  0
 31 32  1  0
 31 33  2  0
  4 34  1  0
 34 35  2  0
 34 36  1  0
 37 36  1  1
 37 38  1  0
 38 39  2  0
 38 40  1  0
 40 41  1  0
 41 42  1  0
 42 43  1  0
 43 44  1  0
 44 45  1  1
 45 46  2  0
 45 47  1  0
 37 48  1  0
 48 49  1  0
 48 50  1  0
 21 15  1  0
 44 40  1  0
M  CHG  3  26   1  33   1  47  -1
M  END
>  <shape_align_shape_tanimoto>  (2) 
0.33070428283960246

>  <shape_align_color_tanimoto>  (2) 
0.059394994855052001

>  <metric>  (2) 
color

>  <metric_score>  (2) 
0.059

>  <template_pid>  (2) 
6QTQ

>  <template_shape_score>  (2) 
0.331

>  <template_color_score>  (2) 
0.059

>  <template_combo_score>  (2) 
0.195

$$$$
6QTQ_combo_pose
     RDKit          3D

 50 51  0  0  0  0  0  0  0  0999 V2000
   65.4399   64.3970   55.7657 C   0  0  0  0  0  0  0  0  0  0  0  0
   64.4164   63.4223   55.1841 C   0  0  0  0  0  0  0  0  0  0  0  0
   65.1519   62.4790   54.2454 C   0  0  0  0  0  0  0  0  0  0  0  0
   63.3796   64.2295   54.4551 C   0  0  2  0  0  0  0  0  0  0  0  0
   63.9865   65.0347   53.4278 N   0  0  0  0  0  0  0  0  0  0  0  0
   63.7773   64.9039   52.0384 C   0  0  0  0  0  0  0  0  0  0  0  0
   62.9353   63.9981   51.6961 O   0  0  0  0  0  0  0  0  0  0  0  0
   64.4039   65.6642   50.9696 C   0  0  2  0  0  0  0  0  0  0  0  0
   65.1398   64.5827   50.1013 C   0  0  0  0  0  0  0  0  0  0  0  0
   65.4075   66.6253   51.3875 N   0  0  0  0  0  0  0  0  0  0  0  0
   66.1778   67.3662   50.4477 C   0  0  0  0  0  0  0  0  0  0  0  0
   66.0628   67.2607   49.2056 O   0  0  0  0  0  0  0  0  0  0  0  0
   67.2053   68.3269   50.9977 C   0  0  2  0  0  0  0  0  0  0  0  0
   66.5930   69.6433   51.3721 C   0  0  0  0  0  0  0  0  0  0  0  0
   67.5929   70.6070   51.9164 C   0  0  0  0  0  0  0  0  0  0  0  0
   67.8359   70.6289   53.2812 C   0  0  0  0  0  0  0  0  0  0  0  0
   68.7552   71.5247   53.8116 C   0  0  0  0  0  0  0  0  0  0  0  0
   69.4189   72.3844   52.9697 C   0  0  0  0  0  0  0  0  0  0  0  0
   70.3478   73.2872   53.5046 O   0  0  0  0  0  0  0  0  0  0  0  0
   69.2081   72.3999   51.5874 C   0  0  0  0  0  0  0  0  0  0  0  0
   68.2861   71.4923   51.1175 C   0  0  0  0  0  0  0  0  0  0  0  0
   68.2320   68.5609   49.9843 N   0  0  0  0  0  0  0  0  0  0  0  0
   69.3757   67.6896   50.0875 C   0  0  0  0  0  0  0  0  0  0  0  0
   69.3041   66.8480   51.0410 O   0  0  0  0  0  0  0  0  0  0  0  0
   70.5447   67.7175   49.2069 C   0  0  1  0  0  0  0  0  0  0  0  0
   70.4342   68.8466   48.2652 N   0  0  0  0  0  0  0  0  0  0  0  0
   71.8760   67.8359   49.9058 C   0  0  0  0  0  0  0  0  0  0  0  0
   72.1895   66.7228   50.8607 C   0  0  0  0  0  0  0  0  0  0  0  0
   73.5586   66.9892   51.4755 C   0  0  0  0  0  0  0  0  0  0  0  0
   73.9241   66.0131   52.4772 N   0  0  0  0  0  0  0  0  0  0  0  0
   73.2453   65.9528   53.7589 C   0  0  0  0  0  0  0  0  0  0  0  0
   73.6091   64.9738   54.7260 N   0  0  0  0  0  0  0  0  0  0  0  0
   72.3020   66.7623   54.0659 N   0  0  0  0  0  0  0  0  0  0  0  0
   62.3009   64.8283   55.1928 C   0  0  0  0  0  0  0  0  0  0  0  0
   61.9231   65.9995   54.9157 O   0  0  0  0  0  0  0  0  0  0  0  0
   61.6550   64.0874   56.2290 N   0  0  0  0  0  0  0  0  0  0  0  0
   60.5693   64.4639   57.0263 C   0  0  2  0  0  0  0  0  0  0  0  0
   60.8281   64.4325   58.4601 C   0  0  0  0  0  0  0  0  0  0  0  0
   59.7451   64.5575   59.1925 O   0  0  0  0  0  0  0  0  0  0  0  0
   61.9984   64.2951   59.1951 N   0  0  0  0  0  0  0  0  0  0  0  0
   63.4111   64.2305   58.7594 C   0  0  0  0  0  0  0  0  0  0  0  0
   64.0359   65.2459   59.7389 C   0  0  0  0  0  0  0  0  0  0  0  0
   63.0488   65.3879   60.8815 C   0  0  0  0  0  0  0  0  0  0  0  0
   62.1624   64.1505   60.6630 C   0  0  1  0  0  0  0  0  0  0  0  0
   60.9089   64.3546   61.3923 C   0  0  0  0  0  0  0  0  0  0  0  0
   60.0916   63.3816   61.5443 O   0  0  0  0  0  0  0  0  0  0  0  0
   60.5383   65.5957   61.9540 O   0  0  0  0  0  0  0  0  0  0  0  0
   59.2939   63.6653   56.7568 C   0  0  0  0  0  0  0  0  0  0  0  0
   58.7982   63.7841   55.3507 C   0  0  0  0  0  0  0  0  0  0  0  0
   59.3592   62.2599   57.2937 C   0  0  0  0  0  0  0  0  0  0  0  0
  1  2  1  0
  2  3  1  0
  2  4  1  0
  4  5  1  1
  5  6  1  0
  6  7  2  0
  6  8  1  0
  8  9  1  6
  8 10  1  0
 10 11  1  0
 11 12  2  0
 11 13  1  0
 13 14  1  6
 14 15  1  0
 15 16  2  0
 16 17  1  0
 17 18  2  0
 18 19  1  0
 18 20  1  0
 20 21  2  0
 13 22  1  0
 22 23  1  0
 23 24  2  0
 23 25  1  0
 25 26  1  6
 25 27  1  0
 27 28  1  0
 28 29  1  0
 29 30  1  0
 30 31  1  0
 31 32  1  0
 31 33  2  0
  4 34  1  0
 34 35  2  0
 34 36  1  0
 37 36  1  6
 37 38  1  0
 38 39  2  0
 38 40  1  0
 40 41  1  0
 41 42  1  0
 42 43  1  0
 43 44  1  0
 44 45  1  1
 45 46  2  0
 45 47  1  0
 37 48  1  0
 48 49  1  0
 48 50  1  0
 21 15  1  0
 44 40  1  0
M  CHG  3  26   1  33   1  47  -1
M  END
>  <shape_align_shape_tanimoto>  (3) 
0.36094526989862363

>  <shape_align_color_tanimoto>  (3) 
0.045068528953300234

>  <metric>  (3) 
combo

>  <metric_score>  (3) 
0.203

>  <template_pid>  (3) 
6QTQ

>  <template_shape_score>  (3) 
0.361

>  <template_color_score>  (3) 
0.045

>  <template_combo_score>  (3) 
0.203

$$$$
