4M3B_shape_pose
     RDKit          3D

 21 22  0  0  0  0  0  0  0  0999 V2000
   18.3653   11.4298   40.3568 C   0  0  0  0  0  0  0  0  0  0  0  0
   19.8961   11.2653   40.2991 C   0  0  0  0  0  0  0  0  0  0  0  0
   20.6493   10.3577   40.3580 N   0  0  0  0  0  0  0  0  0  0  0  0
   21.9716   10.3834   40.2909 C   0  0  0  0  0  0  0  0  0  0  0  0
   22.8234    9.2025   40.3737 C   0  0  0  0  0  0  0  0  0  0  0  0
   22.3170    7.9287   40.5324 C   0  0  0  0  0  0  0  0  0  0  0  0
   23.1349    6.8221   40.6091 C   0  0  0  0  0  0  0  0  0  0  0  0
   24.5075    6.9350   40.5304 C   0  0  0  0  0  0  0  0  0  0  0  0
   25.3953    5.7653   40.6103 C   0  0  0  0  0  0  0  0  0  0  0  0
   26.6350    6.0012   40.5251 O   0  0  0  0  0  0  0  0  0  0  0  0
   24.9390    4.4533   40.7707 N   0  0  0  0  0  0  0  0  0  0  0  0
   25.7664    3.2717   40.8585 C   0  0  0  0  0  0  0  0  0  0  0  0
   26.6583    3.4186   42.0671 C   0  0  0  0  0  0  0  0  0  0  0  0
   25.8026    3.5620   43.3266 C   0  0  0  0  0  0  0  0  0  0  0  0
   25.0050    2.4461   43.4899 F   0  0  0  0  0  0  0  0  0  0  0  0
   26.6159    3.6822   44.4333 F   0  0  0  0  0  0  0  0  0  0  0  0
   25.0323    4.6986   43.2760 F   0  0  0  0  0  0  0  0  0  0  0  0
   25.0136    8.2091   40.3717 C   0  0  0  0  0  0  0  0  0  0  0  0
   24.1944    9.3182   40.2948 C   0  0  0  0  0  0  0  0  0  0  0  0
   22.4771   11.6646   40.1315 C   0  0  0  0  0  0  0  0  0  0  0  0
   20.9661   12.7417   40.0917 S   0  0  0  0  0  0  0  0  0  0  0  0
  1  2  1  0
  2  3  2  0
  3  4  1  0
  4  5  1  0
  5  6  2  0
  6  7  1  0
  7  8  2  0
  8  9  1  0
  9 10  2  0
  9 11  1  0
 11 12  1  0
 12 13  1  0
 13 14  1  0
 14 15  1  0
 14 16  1  0
 14 17  1  0
  8 18  1  0
 18 19  2  0
  4 20  2  0
 20 21  1  0
 21  2  1  0
 19  5  1  0
M  END
>  <shape_align_shape_tanimoto>  (1) 
0.55557785411892768

>  <shape_align_color_tanimoto>  (1) 
0.067418465548928122

>  <metric>  (1) 
shape

>  <metric_score>  (1) 
0.556

>  <template_pid>  (1) 
4M3B

>  <template_shape_score>  (1) 
0.556

>  <template_color_score>  (1) 
0.067

>  <template_combo_score>  (1) 
0.311

$$$$
4M3B_color_pose
     RDKit          3D

 21 22  0  0  0  0  0  0  0  0999 V2000
   19.2643   11.1579   40.8154 C   0  0  0  0  0  0  0  0  0  0  0  0
   20.6889   10.7683   40.4018 C   0  0  0  0  0  0  0  0  0  0  0  0
   21.3650    9.8195   40.5879 N   0  0  0  0  0  0  0  0  0  0  0  0
   22.5907    9.5798   40.1843 C   0  0  0  0  0  0  0  0  0  0  0  0
   23.3385    8.3595   40.4756 C   0  0  0  0  0  0  0  0  0  0  0  0
   22.8093    7.3188   41.2225 C   0  0  0  0  0  0  0  0  0  0  0  0
   23.5266    6.1679   41.4921 C   0  0  0  0  0  0  0  0  0  0  0  0
   24.8118    6.0212   41.0165 C   0  0  0  0  0  0  0  0  0  0  0  0
   25.6272    4.8352   41.2618 C   0  0  0  0  0  0  0  0  0  0  0  0
   26.8100    4.7325   40.8078 O   0  0  0  0  0  0  0  0  0  0  0  0
   25.1624    3.7198   42.0188 N   0  0  0  0  0  0  0  0  0  0  0  0
   26.0561    2.6125   42.1912 C   0  0  0  0  0  0  0  0  0  0  0  0
   26.5087    1.9511   40.9444 C   0  0  0  0  0  0  0  0  0  0  0  0
   25.3168    1.4104   40.1850 C   0  0  0  0  0  0  0  0  0  0  0  0
   25.8237    0.8081   39.0338 F   0  0  0  0  0  0  0  0  0  0  0  0
   24.4968    2.4836   39.8723 F   0  0  0  0  0  0  0  0  0  0  0  0
   24.6738    0.4422   40.9304 F   0  0  0  0  0  0  0  0  0  0  0  0
   25.3676    7.0404   40.2690 C   0  0  0  0  0  0  0  0  0  0  0  0
   24.6285    8.1790   40.0149 C   0  0  0  0  0  0  0  0  0  0  0  0
   23.1406   10.6216   39.4280 C   0  0  0  0  0  0  0  0  0  0  0  0
   21.7278   11.8669   39.4082 S   0  0  0  0  0  0  0  0  0  0  0  0
  1  2  1  0
  2  3  2  0
  3  4  1  0
  4  5  1  0
  5  6  2  0
  6  7  1  0
  7  8  2  0
  8  9  1  0
  9 10  2  0
  9 11  1  0
 11 12  1  0
 12 13  1  0
 13 14  1  0
 14 15  1  0
 14 16  1  0
 14 17  1  0
  8 18  1  0
 18 19  2  0
  4 20  2  0
 20 21  1  0
 21  2  1  0
 19  5  1  0
M  END
>  <shape_align_shape_tanimoto>  (2) 
0.53190614825397797

>  <shape_align_color_tanimoto>  (2) 
0.16144685766899078

>  <metric>  (2) 
color

>  <metric_score>  (2) 
0.161

>  <template_pid>  (2) 
4M3B

>  <template_shape_score>  (2) 
0.532

>  <template_color_score>  (2) 
0.161

>  <template_combo_score>  (2) 
0.347

$$$$
4M3B_combo_pose
     RDKit          3D

 21 22  0  0  0  0  0  0  0  0999 V2000
   19.2643   11.1579   40.8154 C   0  0  0  0  0  0  0  0  0  0  0  0
   20.6889   10.7683   40.4018 C   0  0  0  0  0  0  0  0  0  0  0  0
   21.3650    9.8195   40.5879 N   0  0  0  0  0  0  0  0  0  0  0  0
   22.5907    9.5798   40.1843 C   0  0  0  0  0  0  0  0  0  0  0  0
   23.3385    8.3595   40.4756 C   0  0  0  0  0  0  0  0  0  0  0  0
   22.8093    7.3188   41.2225 C   0  0  0  0  0  0  0  0  0  0  0  0
   23.5266    6.1679   41.4921 C   0  0  0  0  0  0  0  0  0  0  0  0
   24.8118    6.0212   41.0165 C   0  0  0  0  0  0  0  0  0  0  0  0
   25.6272    4.8352   41.2618 C   0  0  0  0  0  0  0  0  0  0  0  0
   26.8100    4.7325   40.8078 O   0  0  0  0  0  0  0  0  0  0  0  0
   25.1624    3.7198   42.0188 N   0  0  0  0  0  0  0  0  0  0  0  0
   26.0561    2.6125   42.1912 C   0  0  0  0  0  0  0  0  0  0  0  0
   26.5087    1.9511   40.9444 C   0  0  0  0  0  0  0  0  0  0  0  0
   25.3168    1.4104   40.1850 C   0  0  0  0  0  0  0  0  0  0  0  0
   25.8237    0.8081   39.0338 F   0  0  0  0  0  0  0  0  0  0  0  0
   24.4968    2.4836   39.8723 F   0  0  0  0  0  0  0  0  0  0  0  0
   24.6738    0.4422   40.9304 F   0  0  0  0  0  0  0  0  0  0  0  0
   25.3676    7.0404   40.2690 C   0  0  0  0  0  0  0  0  0  0  0  0
   24.6285    8.1790   40.0149 C   0  0  0  0  0  0  0  0  0  0  0  0
   23.1406   10.6216   39.4280 C   0  0  0  0  0  0  0  0  0  0  0  0
   21.7278   11.8669   39.4082 S   0  0  0  0  0  0  0  0  0  0  0  0
  1  2  1  0
  2  3  2  0
  3  4  1  0
  4  5  1  0
  5  6  2  0
  6  7  1  0
  7  8  2  0
  8  9  1  0
  9 10  2  0
  9 11  1  0
 11 12  1  0
 12 13  1  0
 13 14  1  0
 14 15  1  0
 14 16  1  0
 14 17  1  0
  8 18  1  0
 18 19  2  0
  4 20  2  0
 20 21  1  0
 21  2  1  0
 19  5  1  0
M  END
>  <shape_align_shape_tanimoto>  (3) 
0.53190614825397797

>  <shape_align_color_tanimoto>  (3) 
0.16144685766899078

>  <metric>  (3) 
combo

>  <metric_score>  (3) 
0.347

>  <template_pid>  (3) 
4M3B

>  <template_shape_score>  (3) 
0.532

>  <template_color_score>  (3) 
0.161

>  <template_combo_score>  (3) 
0.347

$$$$
