2Y59_shape_pose
     RDKit          3D

 16 16  0  0  0  0  0  0  0  0999 V2000
  -29.5841   44.9119   62.3651 O   0  0  0  0  0  0  0  0  0  0  0  0
  -29.3614   44.0801   61.4591 C   0  0  0  0  0  0  0  0  0  0  0  0
  -29.9637   42.7779   61.4695 N   0  0  0  0  0  0  0  0  0  0  0  0
  -30.8513   42.4399   62.5710 C   0  0  0  0  0  0  0  0  0  0  0  0
  -31.3620   40.9509   62.3151 B   0  0  0  0  0  0  0  0  0  0  0  0
  -30.8538   39.8638   63.1653 O   0  0  0  0  0  0  0  0  0  0  0  0
  -31.8276   40.6694   60.9530 O   0  0  0  0  0  0  0  0  0  0  0  0
  -28.4672   44.3868   60.3261 C   0  0  0  0  0  0  0  0  0  0  0  0
  -28.7725   45.3678   59.4040 C   0  0  0  0  0  0  0  0  0  0  0  0
  -27.8657   45.5900   58.3619 C   0  0  0  0  0  0  0  0  0  0  0  0
  -26.7119   44.8316   58.2915 C   0  0  0  0  0  0  0  0  0  0  0  0
  -26.4024   43.8483   59.2128 C   0  0  0  0  0  0  0  0  0  0  0  0
  -27.3066   43.6282   60.2501 C   0  0  0  0  0  0  0  0  0  0  0  0
  -27.0197   42.6162   61.2252 N   0  0  0  0  0  0  0  0  0  0  0  0
  -27.4469   42.8301   62.3849 O   0  0  0  0  0  0  0  0  0  0  0  0
  -26.3308   41.4808   60.9520 O   0  0  0  0  0  0  0  0  0  0  0  0
  1  2  2  0
  2  3  1  0
  3  4  1  0
  4  5  1  0
  5  6  1  0
  5  7  1  0
  2  8  1  0
  8  9  2  0
  9 10  1  0
 10 11  2  0
 11 12  1  0
 12 13  2  0
 13 14  1  0
 14 15  2  0
 14 16  1  0
 13  8  1  0
M  CHG  2  14   1  16  -1
M  END
>  <shape_align_shape_tanimoto>  (1) 
0.73554651116296521

>  <shape_align_color_tanimoto>  (1) 
0.083307831785719128

>  <metric>  (1) 
shape

>  <metric_score>  (1) 
0.736

>  <template_pid>  (1) 
2Y59

>  <template_shape_score>  (1) 
0.736

>  <template_color_score>  (1) 
0.083

>  <template_combo_score>  (1) 
0.409

$$$$
2Y59_color_pose
     RDKit          3D

 16 16  0  0  0  0  0  0  0  0999 V2000
  -28.9027   41.9301   61.9978 O   0  0  0  0  0  0  0  0  0  0  0  0
  -29.3038   43.0554   61.5592 C   0  0  0  0  0  0  0  0  0  0  0  0
  -30.5718   43.4608   62.0915 N   0  0  0  0  0  0  0  0  0  0  0  0
  -31.1798   42.4962   63.0295 C   0  0  0  0  0  0  0  0  0  0  0  0
  -31.4541   41.1030   62.2523 B   0  0  0  0  0  0  0  0  0  0  0  0
  -32.6188   40.2770   62.6002 O   0  0  0  0  0  0  0  0  0  0  0  0
  -31.0168   41.0480   60.8361 O   0  0  0  0  0  0  0  0  0  0  0  0
  -28.5566   43.8643   60.5992 C   0  0  0  0  0  0  0  0  0  0  0  0
  -29.2760   44.8814   59.9724 C   0  0  0  0  0  0  0  0  0  0  0  0
  -28.6152   45.6255   58.9639 C   0  0  0  0  0  0  0  0  0  0  0  0
  -27.3415   45.2886   58.6946 C   0  0  0  0  0  0  0  0  0  0  0  0
  -26.5779   44.3120   59.2680 C   0  0  0  0  0  0  0  0  0  0  0  0
  -27.2524   43.5649   60.2820 C   0  0  0  0  0  0  0  0  0  0  0  0
  -26.4649   42.5672   60.8818 N   0  0  0  0  0  0  0  0  0  0  0  0
  -26.5110   42.2643   62.1147 O   0  0  0  0  0  0  0  0  0  0  0  0
  -25.5152   41.8535   60.1472 O   0  0  0  0  0  0  0  0  0  0  0  0
  1  2  2  0
  2  3  1  0
  3  4  1  0
  4  5  1  0
  5  6  1  0
  5  7  1  0
  2  8  1  0
  8  9  2  0
  9 10  1  0
 10 11  2  0
 11 12  1  0
 12 13  2  0
 13 14  1  0
 14 15  2  0
 14 16  1  0
 13  8  1  0
M  CHG  2  14   1  16  -1
M  END
>  <shape_align_shape_tanimoto>  (2) 
0.68453091548133316

>  <shape_align_color_tanimoto>  (2) 
0.1241257082461006

>  <metric>  (2) 
color

>  <metric_score>  (2) 
0.124

>  <template_pid>  (2) 
2Y59

>  <template_shape_score>  (2) 
0.685

>  <template_color_score>  (2) 
0.124

>  <template_combo_score>  (2) 
0.404

$$$$
2Y59_combo_pose
     RDKit          3D

 16 16  0  0  0  0  0  0  0  0999 V2000
  -29.2636   44.6387   62.7914 O   0  0  0  0  0  0  0  0  0  0  0  0
  -29.2573   43.9846   61.7424 C   0  0  0  0  0  0  0  0  0  0  0  0
  -30.0261   42.7698   61.5894 N   0  0  0  0  0  0  0  0  0  0  0  0
  -30.8522   42.2214   62.6331 C   0  0  0  0  0  0  0  0  0  0  0  0
  -31.5253   40.8953   61.9910 B   0  0  0  0  0  0  0  0  0  0  0  0
  -32.0417   41.0987   60.6183 O   0  0  0  0  0  0  0  0  0  0  0  0
  -30.6766   39.6782   62.1120 O   0  0  0  0  0  0  0  0  0  0  0  0
  -28.4902   44.3461   60.5330 C   0  0  0  0  0  0  0  0  0  0  0  0
  -28.9420   45.2801   59.6210 C   0  0  0  0  0  0  0  0  0  0  0  0
  -28.1811   45.4970   58.4702 C   0  0  0  0  0  0  0  0  0  0  0  0
  -27.0211   44.7738   58.3009 C   0  0  0  0  0  0  0  0  0  0  0  0
  -26.5571   43.8506   59.1916 C   0  0  0  0  0  0  0  0  0  0  0  0
  -27.3233   43.6343   60.3495 C   0  0  0  0  0  0  0  0  0  0  0  0
  -26.8929   42.6906   61.3434 N   0  0  0  0  0  0  0  0  0  0  0  0
  -26.1777   41.6916   61.0263 O   0  0  0  0  0  0  0  0  0  0  0  0
  -27.2857   42.9031   62.6567 O   0  0  0  0  0  0  0  0  0  0  0  0
  1  2  2  0
  2  3  1  0
  3  4  1  0
  4  5  1  0
  5  6  1  0
  5  7  1  0
  2  8  1  0
  8  9  2  0
  9 10  1  0
 10 11  2  0
 11 12  1  0
 12 13  2  0
 13 14  1  0
 14 15  2  0
 14 16  1  0
 13  8  1  0
M  CHG  2  14   1  16  -1
M  END
>  <shape_align_shape_tanimoto>  (3) 
0.73142232203134139

>  <shape_align_color_tanimoto>  (3) 
0.090579157124383539

>  <metric>  (3) 
combo

>  <metric_score>  (3) 
0.411

>  <template_pid>  (3) 
2Y59

>  <template_shape_score>  (3) 
0.731

>  <template_color_score>  (3) 
0.091

>  <template_combo_score>  (3) 
0.411

$$$$
