3Q4L_shape_pose
     RDKit          3D

 53 54  0  0  0  0  0  0  0  0999 V2000
  -20.8695   35.3205   56.6004 C   0  0  0  0  0  0  0  0  0  0  0  0
  -19.4624   35.0647   57.0554 C   0  0  0  0  0  0  0  0  0  0  0  0
  -18.9891   35.5435   58.1096 O   0  0  0  0  0  0  0  0  0  0  0  0
  -18.6597   34.2425   56.2382 N   0  0  0  0  0  0  0  0  0  0  0  0
  -17.3004   33.8735   56.4853 C   0  0  1  0  0  0  0  0  0  0  0  0
  -17.0863   32.4114   56.6632 C   0  0  0  0  0  0  0  0  0  0  0  0
  -17.8984   31.9319   57.8452 C   0  0  0  0  0  0  0  0  0  0  0  0
  -17.7130   30.4706   58.0694 C   0  0  0  0  0  0  0  0  0  0  0  0
  -18.4192   29.7647   59.1028 N   0  0  0  0  0  0  0  0  0  0  0  0
  -16.9271   29.7672   57.3683 O   0  0  0  0  0  0  0  0  0  0  0  0
  -16.4267   34.4733   55.4349 C   0  0  0  0  0  0  0  0  0  0  0  0
  -16.8313   35.2454   54.5444 O   0  0  0  0  0  0  0  0  0  0  0  0
  -15.0605   34.1288   55.4698 N   0  0  0  0  0  0  0  0  0  0  0  0
  -14.0732   34.6569   54.4817 C   0  0  1  0  0  0  0  0  0  0  0  0
  -12.8590   35.0899   55.2164 C   0  0  0  0  0  0  0  0  0  0  0  0
  -11.7167   35.6592   54.4772 C   0  0  0  0  0  0  0  0  0  0  0  0
  -10.6449   36.0246   55.5297 C   0  0  0  0  0  0  0  0  0  0  0  0
  -10.9474   37.3001   56.2403 C   0  0  0  0  0  0  0  0  0  0  0  0
  -11.3101   38.4097   55.3068 C   0  0  0  0  0  0  0  0  0  0  0  0
  -11.1532   37.9744   53.8666 C   0  0  0  0  0  0  0  0  0  0  0  0
  -12.0198   36.7728   53.5512 C   0  0  0  0  0  0  0  0  0  0  0  0
  -13.7900   33.4833   53.6211 C   0  0  0  0  0  0  0  0  0  0  0  0
  -14.3860   32.3976   53.9491 O   0  0  0  0  0  0  0  0  0  0  0  0
  -12.9572   33.4401   52.5110 N   0  0  0  0  0  0  0  0  0  0  0  0
  -12.7769   32.1986   51.7587 C   0  0  1  0  0  0  0  0  0  0  0  0
  -12.1949   32.3711   50.4197 C   0  0  0  0  0  0  0  0  0  0  0  0
  -13.0406   33.2441   49.5629 C   0  0  0  0  0  0  0  0  0  0  0  0
  -12.6927   33.4395   48.3623 O   0  0  0  0  0  0  0  0  0  0  0  0
  -14.1978   33.8615   50.0063 O   0  0  0  0  0  0  0  0  0  0  0  0
  -11.7953   31.4242   52.6417 C   0  0  0  0  0  0  0  0  0  0  0  0
  -11.4967   31.9964   53.7088 O   0  0  0  0  0  0  0  0  0  0  0  0
  -11.2992   30.1600   52.2383 N   0  0  0  0  0  0  0  0  0  0  0  0
  -10.4097   29.4678   53.1260 C   0  0  1  0  0  0  0  0  0  0  0  0
  -11.0723   28.3005   53.7751 C   0  0  0  0  0  0  0  0  0  0  0  0
  -11.5822   27.2104   52.9200 C   0  0  0  0  0  0  0  0  0  0  0  0
  -12.6252   27.5146   51.9171 C   0  0  0  0  0  0  0  0  0  0  0  0
  -12.1429   26.1447   53.8780 C   0  0  0  0  0  0  0  0  0  0  0  0
   -9.0682   29.1977   52.5738 C   0  0  0  0  0  0  0  0  0  0  0  0
   -8.6844   29.6005   51.4339 O   0  0  0  0  0  0  0  0  0  0  0  0
   -8.1556   28.4411   53.3606 N   0  0  0  0  0  0  0  0  0  0  0  0
   -6.8106   28.1103   52.9162 C   0  0  1  0  0  0  0  0  0  0  0  0
   -5.8256   28.4252   53.9871 C   0  0  0  0  0  0  0  0  0  0  0  0
   -5.8009   29.8399   54.3788 C   0  0  0  0  0  0  0  0  0  0  0  0
   -4.9704   30.6983   53.6873 C   0  0  0  0  0  0  0  0  0  0  0  0
   -4.9394   32.0212   54.0742 C   0  0  0  0  0  0  0  0  0  0  0  0
   -5.7099   32.4779   55.1146 C   0  0  0  0  0  0  0  0  0  0  0  0
   -5.6586   34.1761   55.6006 Cl  0  0  0  0  0  0  0  0  0  0  0  0
   -6.5465   31.6037   55.8086 C   0  0  0  0  0  0  0  0  0  0  0  0
   -7.5120   32.2328   57.1330 Cl  0  0  0  0  0  0  0  0  0  0  0  0
   -6.5885   30.2696   55.4304 C   0  0  0  0  0  0  0  0  0  0  0  0
   -6.7202   26.6492   52.5888 C   0  0  0  0  0  0  0  0  0  0  0  0
   -7.6390   25.8787   52.9790 O   0  0  0  0  0  0  0  0  0  0  0  0
   -5.6163   26.2261   51.8662 O   0  0  0  0  0  0  0  0  0  0  0  0
  1  2  1  0
  2  3  2  0
  2  4  1  0
  4  5  1  0
  5  6  1  6
  6  7  1  0
  7  8  1  0
  8  9  1  0
  8 10  2  0
  5 11  1  0
 11 12  2  0
 11 13  1  0
 13 14  1  0
 14 15  1  1
 15 16  1  0
 16 17  1  0
 17 18  1  0
 18 19  1  0
 19 20  1  0
 20 21  1  0
 14 22  1  0
 22 23  2  0
 22 24  1  0
 24 25  1  0
 25 26  1  6
 26 27  1  0
 27 28  2  0
 27 29  1  0
 25 30  1  0
 30 31  2  0
 30 32  1  0
 32 33  1  0
 33 34  1  6
 34 35  1  0
 35 36  1  0
 35 37  1  0
 33 38  1  0
 38 39  2  0
 38 40  1  0
 40 41  1  0
 41 42  1  1
 42 43  1  0
 43 44  2  0
 44 45  1  0
 45 46  2  0
 46 47  1  0
 46 48  1  0
 48 49  1  0
 48 50  2  0
 41 51  1  0
 51 52  2  0
 51 53  1  0
 21 16  1  0
 50 43  1  0
M  CHG  2  29  -1  53  -1
M  END
>  <shape_align_shape_tanimoto>  (1) 
0.47834249920537875

>  <shape_align_color_tanimoto>  (1) 
0.012930683257164951

>  <metric>  (1) 
shape

>  <metric_score>  (1) 
0.478

>  <template_pid>  (1) 
3Q4L

>  <template_shape_score>  (1) 
0.478

>  <template_color_score>  (1) 
0.013

>  <template_combo_score>  (1) 
0.246

$$$$
3Q4L_color_pose
     RDKit          3D

 53 54  0  0  0  0  0  0  0  0999 V2000
  -21.3935   35.7090   53.9539 C   0  0  0  0  0  0  0  0  0  0  0  0
  -20.6448   35.2181   55.1830 C   0  0  0  0  0  0  0  0  0  0  0  0
  -21.3590   34.6750   56.0457 O   0  0  0  0  0  0  0  0  0  0  0  0
  -19.2632   35.4400   55.1872 N   0  0  0  0  0  0  0  0  0  0  0  0
  -18.2944   35.1264   56.1995 C   0  0  1  0  0  0  0  0  0  0  0  0
  -19.0173   34.8922   57.5350 C   0  0  0  0  0  0  0  0  0  0  0  0
  -19.6651   36.2055   57.9003 C   0  0  0  0  0  0  0  0  0  0  0  0
  -20.4754   36.1207   59.1549 C   0  0  0  0  0  0  0  0  0  0  0  0
  -21.1240   37.2516   59.7258 N   0  0  0  0  0  0  0  0  0  0  0  0
  -20.5975   34.9887   59.7462 O   0  0  0  0  0  0  0  0  0  0  0  0
  -17.3596   34.1023   55.8218 C   0  0  0  0  0  0  0  0  0  0  0  0
  -17.6934   33.2731   54.9016 O   0  0  0  0  0  0  0  0  0  0  0  0
  -16.1056   33.9977   56.4216 N   0  0  0  0  0  0  0  0  0  0  0  0
  -15.0998   32.9313   56.0608 C   0  0  1  0  0  0  0  0  0  0  0  0
  -14.6344   33.2761   54.6788 C   0  0  0  0  0  0  0  0  0  0  0  0
  -13.6107   32.4767   53.9804 C   0  0  0  0  0  0  0  0  0  0  0  0
  -12.2967   32.5530   54.6635 C   0  0  0  0  0  0  0  0  0  0  0  0
  -11.2345   33.3074   53.8330 C   0  0  0  0  0  0  0  0  0  0  0  0
  -11.1832   32.6186   52.4964 C   0  0  0  0  0  0  0  0  0  0  0  0
  -12.4612   33.0719   51.7815 C   0  0  0  0  0  0  0  0  0  0  0  0
  -13.6556   32.5829   52.4986 C   0  0  0  0  0  0  0  0  0  0  0  0
  -14.1515   32.8166   57.1360 C   0  0  0  0  0  0  0  0  0  0  0  0
  -14.1171   33.8726   57.9202 O   0  0  0  0  0  0  0  0  0  0  0  0
  -13.2599   31.7271   57.4703 N   0  0  0  0  0  0  0  0  0  0  0  0
  -12.4358   31.9339   58.6177 C   0  0  1  0  0  0  0  0  0  0  0  0
  -12.7924   30.9976   59.7616 C   0  0  0  0  0  0  0  0  0  0  0  0
  -14.1430   31.1138   60.2946 C   0  0  0  0  0  0  0  0  0  0  0  0
  -15.0622   31.8609   59.9313 O   0  0  0  0  0  0  0  0  0  0  0  0
  -14.4529   30.2542   61.3804 O   0  0  0  0  0  0  0  0  0  0  0  0
  -11.0100   31.8329   58.3623 C   0  0  0  0  0  0  0  0  0  0  0  0
  -10.2759   32.6986   59.0023 O   0  0  0  0  0  0  0  0  0  0  0  0
  -10.2579   30.9594   57.5447 N   0  0  0  0  0  0  0  0  0  0  0  0
   -8.8372   31.2094   57.5396 C   0  0  1  0  0  0  0  0  0  0  0  0
   -8.2923   30.6366   58.9102 C   0  0  0  0  0  0  0  0  0  0  0  0
   -6.8199   30.8176   59.0233 C   0  0  0  0  0  0  0  0  0  0  0  0
   -6.3069   32.2153   58.9842 C   0  0  0  0  0  0  0  0  0  0  0  0
   -6.4023   30.1786   60.3582 C   0  0  0  0  0  0  0  0  0  0  0  0
   -8.0655   30.5432   56.4982 C   0  0  0  0  0  0  0  0  0  0  0  0
   -8.3470   29.3721   56.1911 O   0  0  0  0  0  0  0  0  0  0  0  0
   -7.0249   31.2396   55.8732 N   0  0  0  0  0  0  0  0  0  0  0  0
   -6.0796   30.8658   54.8870 C   0  0  1  0  0  0  0  0  0  0  0  0
   -6.5004   30.6976   53.4703 C   0  0  0  0  0  0  0  0  0  0  0  0
   -7.4505   29.6107   53.2115 C   0  0  0  0  0  0  0  0  0  0  0  0
   -8.8132   29.6674   53.1708 C   0  0  0  0  0  0  0  0  0  0  0  0
   -9.5637   28.5432   52.9012 C   0  0  0  0  0  0  0  0  0  0  0  0
   -8.9497   27.3042   52.6583 C   0  0  0  0  0  0  0  0  0  0  0  0
   -9.8912   25.8727   52.3129 Cl  0  0  0  0  0  0  0  0  0  0  0  0
   -7.5857   27.2269   52.6934 C   0  0  0  0  0  0  0  0  0  0  0  0
   -6.7040   25.7203   52.3895 Cl  0  0  0  0  0  0  0  0  0  0  0  0
   -6.8601   28.3549   52.9642 C   0  0  0  0  0  0  0  0  0  0  0  0
   -4.8111   31.6178   54.9675 C   0  0  0  0  0  0  0  0  0  0  0  0
   -3.9774   31.5178   55.8988 O   0  0  0  0  0  0  0  0  0  0  0  0
   -4.5384   32.4983   53.9238 O   0  0  0  0  0  0  0  0  0  0  0  0
  1  2  1  0
  2  3  2  0
  2  4  1  0
  4  5  1  0
  5  6  1  1
  6  7  1  0
  7  8  1  0
  8  9  1  0
  8 10  2  0
  5 11  1  0
 11 12  2  0
 11 13  1  0
 13 14  1  0
 14 15  1  6
 15 16  1  0
 16 17  1  0
 17 18  1  0
 18 19  1  0
 19 20  1  0
 20 21  1  0
 14 22  1  0
 22 23  2  0
 22 24  1  0
 24 25  1  0
 25 26  1  1
 26 27  1  0
 27 28  2  0
 27 29  1  0
 25 30  1  0
 30 31  2  0
 30 32  1  0
 32 33  1  0
 33 34  1  1
 34 35  1  0
 35 36  1  0
 35 37  1  0
 33 38  1  0
 38 39  2  0
 38 40  1  0
 40 41  1  0
 41 42  1  6
 42 43  1  0
 43 44  2  0
 44 45  1  0
 45 46  2  0
 46 47  1  0
 46 48  1  0
 48 49  1  0
 48 50  2  0
 41 51  1  0
 51 52  2  0
 51 53  1  0
 21 16  1  0
 50 43  1  0
M  CHG  2  29  -1  53  -1
M  END
>  <shape_align_shape_tanimoto>  (2) 
0.33656599751068894

>  <shape_align_color_tanimoto>  (2) 
0.080865366611719391

>  <metric>  (2) 
color

>  <metric_score>  (2) 
0.081

>  <template_pid>  (2) 
3Q4L

>  <template_shape_score>  (2) 
0.337

>  <template_color_score>  (2) 
0.081

>  <template_combo_score>  (2) 
0.209

$$$$
3Q4L_combo_pose
     RDKit          3D

 53 54  0  0  0  0  0  0  0  0999 V2000
   -6.0206   25.6506   50.6355 C   0  0  0  0  0  0  0  0  0  0  0  0
   -6.5889   26.2880   51.8518 C   0  0  0  0  0  0  0  0  0  0  0  0
   -6.8606   25.5976   52.8704 O   0  0  0  0  0  0  0  0  0  0  0  0
   -6.8238   27.6987   51.8536 N   0  0  0  0  0  0  0  0  0  0  0  0
   -7.3867   28.3514   53.0627 C   0  0  1  0  0  0  0  0  0  0  0  0
   -6.4530   29.3643   53.5852 C   0  0  0  0  0  0  0  0  0  0  0  0
   -6.9808   30.0565   54.8088 C   0  0  0  0  0  0  0  0  0  0  0  0
   -5.8711   31.0000   55.2377 C   0  0  0  0  0  0  0  0  0  0  0  0
   -6.0048   31.8483   56.3537 N   0  0  0  0  0  0  0  0  0  0  0  0
   -4.7838   31.0533   54.6025 O   0  0  0  0  0  0  0  0  0  0  0  0
   -8.7607   28.7416   52.7650 C   0  0  0  0  0  0  0  0  0  0  0  0
   -9.0963   28.5538   51.5170 O   0  0  0  0  0  0  0  0  0  0  0  0
   -9.7442   29.2661   53.5849 N   0  0  0  0  0  0  0  0  0  0  0  0
  -11.1162   29.5822   53.0423 C   0  0  1  0  0  0  0  0  0  0  0  0
  -12.1104   28.9004   53.8851 C   0  0  0  0  0  0  0  0  0  0  0  0
  -13.5574   29.0014   53.5945 C   0  0  0  0  0  0  0  0  0  0  0  0
  -14.2724   28.1695   54.6581 C   0  0  0  0  0  0  0  0  0  0  0  0
  -15.6879   27.8495   54.3818 C   0  0  0  0  0  0  0  0  0  0  0  0
  -16.0450   27.5243   52.9704 C   0  0  0  0  0  0  0  0  0  0  0  0
  -14.7758   27.2751   52.2061 C   0  0  0  0  0  0  0  0  0  0  0  0
  -13.8803   28.4705   52.2192 C   0  0  0  0  0  0  0  0  0  0  0  0
  -11.1265   31.0598   53.0126 C   0  0  0  0  0  0  0  0  0  0  0  0
  -10.2180   31.6303   53.7170 O   0  0  0  0  0  0  0  0  0  0  0  0
  -12.0446   31.8580   52.2670 N   0  0  0  0  0  0  0  0  0  0  0  0
  -11.9834   33.3035   52.2441 C   0  0  1  0  0  0  0  0  0  0  0  0
  -11.6111   33.8142   50.8597 C   0  0  0  0  0  0  0  0  0  0  0  0
  -10.3204   33.3252   50.4187 C   0  0  0  0  0  0  0  0  0  0  0  0
   -9.5375   32.5492   50.9928 O   0  0  0  0  0  0  0  0  0  0  0  0
   -9.8696   33.7889   49.1537 O   0  0  0  0  0  0  0  0  0  0  0  0
  -13.2714   33.9323   52.6415 C   0  0  0  0  0  0  0  0  0  0  0  0
  -13.2707   35.2209   52.5757 O   0  0  0  0  0  0  0  0  0  0  0  0
  -14.4383   33.2874   53.0570 N   0  0  0  0  0  0  0  0  0  0  0  0
  -15.6792   33.9161   53.4032 C   0  0  1  0  0  0  0  0  0  0  0  0
  -16.8318   33.4505   52.6195 C   0  0  0  0  0  0  0  0  0  0  0  0
  -17.0737   31.9891   52.7362 C   0  0  0  0  0  0  0  0  0  0  0  0
  -17.3704   31.5614   54.1420 C   0  0  0  0  0  0  0  0  0  0  0  0
  -18.2440   31.5936   51.8470 C   0  0  0  0  0  0  0  0  0  0  0  0
  -15.9410   34.0495   54.8336 C   0  0  0  0  0  0  0  0  0  0  0  0
  -14.9678   33.7828   55.6254 O   0  0  0  0  0  0  0  0  0  0  0  0
  -17.1445   34.4418   55.4332 N   0  0  0  0  0  0  0  0  0  0  0  0
  -17.3250   34.5874   56.8585 C   0  0  1  0  0  0  0  0  0  0  0  0
  -18.5239   35.3300   57.2854 C   0  0  0  0  0  0  0  0  0  0  0  0
  -18.6813   36.7099   56.8213 C   0  0  0  0  0  0  0  0  0  0  0  0
  -18.2051   37.8329   57.4436 C   0  0  0  0  0  0  0  0  0  0  0  0
  -18.4186   39.1211   56.9662 C   0  0  0  0  0  0  0  0  0  0  0  0
  -19.1484   39.2804   55.8038 C   0  0  0  0  0  0  0  0  0  0  0  0
  -19.4832   40.8640   55.1218 Cl  0  0  0  0  0  0  0  0  0  0  0  0
  -19.6495   38.1788   55.1389 C   0  0  0  0  0  0  0  0  0  0  0  0
  -20.5845   38.3347   53.6448 Cl  0  0  0  0  0  0  0  0  0  0  0  0
  -19.4141   36.8977   55.6499 C   0  0  0  0  0  0  0  0  0  0  0  0
  -17.4108   33.1809   57.4765 C   0  0  0  0  0  0  0  0  0  0  0  0
  -18.4720   32.7622   57.9740 O   0  0  0  0  0  0  0  0  0  0  0  0
  -16.2567   32.3773   57.4647 O   0  0  0  0  0  0  0  0  0  0  0  0
  1  2  1  0
  2  3  2  0
  2  4  1  0
  4  5  1  0
  5  6  1  6
  6  7  1  0
  7  8  1  0
  8  9  1  0
  8 10  2  0
  5 11  1  0
 11 12  2  0
 11 13  1  0
 13 14  1  0
 14 15  1  1
 15 16  1  0
 16 17  1  0
 17 18  1  0
 18 19  1  0
 19 20  1  0
 20 21  1  0
 14 22  1  0
 22 23  2  0
 22 24  1  0
 24 25  1  0
 25 26  1  6
 26 27  1  0
 27 28  2  0
 27 29  1  0
 25 30  1  0
 30 31  2  0
 30 32  1  0
 32 33  1  0
 33 34  1  1
 34 35  1  0
 35 36  1  0
 35 37  1  0
 33 38  1  0
 38 39  2  0
 38 40  1  0
 40 41  1  0
 41 42  1  6
 42 43  1  0
 43 44  2  0
 44 45  1  0
 45 46  2  0
 46 47  1  0
 46 48  1  0
 48 49  1  0
 48 50  2  0
 41 51  1  0
 51 52  2  0
 51 53  1  0
 21 16  1  0
 50 43  1  0
M  CHG  2  29  -1  53  -1
M  END
>  <shape_align_shape_tanimoto>  (3) 
0.45676933919435236

>  <shape_align_color_tanimoto>  (3) 
0.064780173017414858

>  <metric>  (3) 
combo

>  <metric_score>  (3) 
0.261

>  <template_pid>  (3) 
3Q4L

>  <template_shape_score>  (3) 
0.457

>  <template_color_score>  (3) 
0.065

>  <template_combo_score>  (3) 
0.261

$$$$
