3NPA_shape_pose
     RDKit          3D

 19 20  0  0  0  0  0  0  0  0999 V2000
   37.5049   24.7409   31.5053 O   0  0  0  0  0  0  0  0  0  0  0  0
   36.6298   24.2970   30.7096 C   0  0  0  0  0  0  0  0  0  0  0  0
   36.9403   23.4191   29.6871 C   0  0  0  0  0  0  0  0  0  0  0  0
   35.9261   22.9640   28.8398 C   0  0  0  0  0  0  0  0  0  0  0  0
   34.6711   23.3998   29.0501 N   0  0  0  0  0  0  0  0  0  0  0  0
   33.6063   22.9438   28.1880 C   0  0  2  0  0  0  0  0  0  0  0  0
   33.6370   21.5545   28.1681 O   0  0  0  0  0  0  0  0  0  0  0  0
   32.5570   21.1816   27.3759 C   0  0  2  0  0  0  0  0  0  0  0  0
   31.9869   19.8354   27.6946 C   0  0  0  0  0  0  0  0  0  0  0  0
   32.8673   18.7900   27.5604 O   0  0  0  0  0  0  0  0  0  0  0  0
   32.9971   21.3375   25.9565 C   0  0  1  0  0  0  0  0  0  0  0  0
   32.1593   20.7517   25.0198 O   0  0  0  0  0  0  0  0  0  0  0  0
   33.0379   22.8506   25.7211 C   0  0  2  0  0  0  0  0  0  0  0  0
   33.6376   23.1523   24.4955 O   0  0  0  0  0  0  0  0  0  0  0  0
   33.6945   23.5817   26.8327 C   0  0  1  0  0  0  0  0  0  0  0  0
   33.0995   24.8388   26.9472 O   0  0  0  0  0  0  0  0  0  0  0  0
   34.3945   24.2506   30.0477 C   0  0  0  0  0  0  0  0  0  0  0  0
   33.2093   24.6369   30.2146 O   0  0  0  0  0  0  0  0  0  0  0  0
   35.3574   24.7099   30.8864 N   0  0  0  0  0  0  0  0  0  0  0  0
  1  2  2  0
  2  3  1  0
  3  4  2  0
  4  5  1  0
  6  5  1  1
  6  7  1  0
  7  8  1  0
  8  9  1  6
  9 10  1  0
  8 11  1  0
 11 12  1  6
 11 13  1  0
 13 14  1  6
 13 15  1  0
 15 16  1  1
  5 17  1  0
 17 18  2  0
 17 19  1  0
 19  2  1  0
 15  6  1  0
M  END
>  <shape_align_shape_tanimoto>  (1) 
0.67008650966995609

>  <shape_align_color_tanimoto>  (1) 
0.08416078371754962

>  <metric>  (1) 
shape

>  <metric_score>  (1) 
0.670

>  <template_pid>  (1) 
3NPA

>  <template_shape_score>  (1) 
0.670

>  <template_color_score>  (1) 
0.084

>  <template_combo_score>  (1) 
0.377

$$$$
3NPA_color_pose
     RDKit          3D

 19 20  0  0  0  0  0  0  0  0999 V2000
   39.0215   26.2134   34.7234 O   0  0  0  0  0  0  0  0  0  0  0  0
   38.3553   25.8453   33.7153 C   0  0  0  0  0  0  0  0  0  0  0  0
   39.0374   25.6335   32.5135 C   0  0  0  0  0  0  0  0  0  0  0  0
   38.3073   25.2291   31.4043 C   0  0  0  0  0  0  0  0  0  0  0  0
   36.9610   25.0507   31.5129 N   0  0  0  0  0  0  0  0  0  0  0  0
   36.2587   24.6314   30.3312 C   0  0  2  0  0  0  0  0  0  0  0  0
   34.8944   24.7703   30.5205 O   0  0  0  0  0  0  0  0  0  0  0  0
   34.1225   24.2989   29.4993 C   0  0  2  0  0  0  0  0  0  0  0  0
   32.6909   24.1843   30.0412 C   0  0  0  0  0  0  0  0  0  0  0  0
   32.2074   25.3978   30.4647 O   0  0  0  0  0  0  0  0  0  0  0  0
   34.4734   22.9515   28.9596 C   0  0  1  0  0  0  0  0  0  0  0  0
   33.7788   22.7241   27.7930 O   0  0  0  0  0  0  0  0  0  0  0  0
   35.9828   22.7888   28.8002 C   0  0  2  0  0  0  0  0  0  0  0  0
   36.2948   21.5059   28.4504 O   0  0  0  0  0  0  0  0  0  0  0  0
   36.5295   23.1363   30.1878 C   0  0  1  0  0  0  0  0  0  0  0  0
   37.8789   22.8964   30.3046 O   0  0  0  0  0  0  0  0  0  0  0  0
   36.3155   25.2577   32.6754 C   0  0  0  0  0  0  0  0  0  0  0  0
   35.0695   25.0845   32.7450 O   0  0  0  0  0  0  0  0  0  0  0  0
   37.0132   25.6527   33.7673 N   0  0  0  0  0  0  0  0  0  0  0  0
  1  2  2  0
  2  3  1  0
  3  4  2  0
  4  5  1  0
  6  5  1  1
  6  7  1  0
  7  8  1  0
  8  9  1  1
  9 10  1  0
  8 11  1  0
 11 12  1  6
 11 13  1  0
 13 14  1  1
 13 15  1  0
 15 16  1  6
  5 17  1  0
 17 18  2  0
 17 19  1  0
 19  2  1  0
 15  6  1  0
M  END
>  <shape_align_shape_tanimoto>  (2) 
0.52541980708011249

>  <shape_align_color_tanimoto>  (2) 
0.15154142462614115

>  <metric>  (2) 
color

>  <metric_score>  (2) 
0.152

>  <template_pid>  (2) 
3NPA

>  <template_shape_score>  (2) 
0.525

>  <template_color_score>  (2) 
0.152

>  <template_combo_score>  (2) 
0.338

$$$$
3NPA_combo_pose
     RDKit          3D

 19 20  0  0  0  0  0  0  0  0999 V2000
   37.4835   25.0041   32.2282 O   0  0  0  0  0  0  0  0  0  0  0  0
   36.6609   24.5669   31.3463 C   0  0  0  0  0  0  0  0  0  0  0  0
   35.2782   24.7701   31.5125 C   0  0  0  0  0  0  0  0  0  0  0  0
   34.3595   24.2933   30.5476 C   0  0  0  0  0  0  0  0  0  0  0  0
   34.7810   23.6082   29.4018 N   0  0  0  0  0  0  0  0  0  0  0  0
   33.8451   23.1121   28.4007 C   0  0  2  0  0  0  0  0  0  0  0  0
   33.7057   21.6864   28.3662 O   0  0  0  0  0  0  0  0  0  0  0  0
   32.4758   21.4586   27.6737 C   0  0  2  0  0  0  0  0  0  0  0  0
   31.8639   20.0841   28.0089 C   0  0  0  0  0  0  0  0  0  0  0  0
   32.6950   19.0008   27.6779 O   0  0  0  0  0  0  0  0  0  0  0  0
   32.7634   21.6467   26.1767 C   0  0  1  0  0  0  0  0  0  0  0  0
   31.6463   21.3599   25.3499 O   0  0  0  0  0  0  0  0  0  0  0  0
   33.0794   23.1726   25.9796 C   0  0  2  0  0  0  0  0  0  0  0  0
   33.6253   23.3584   24.6620 O   0  0  0  0  0  0  0  0  0  0  0  0
   34.0852   23.7061   26.9891 C   0  0  1  0  0  0  0  0  0  0  0  0
   33.8521   25.1279   27.1096 O   0  0  0  0  0  0  0  0  0  0  0  0
   36.1406   23.4242   29.2662 C   0  0  0  0  0  0  0  0  0  0  0  0
   36.6581   22.8035   28.2468 O   0  0  0  0  0  0  0  0  0  0  0  0
   37.0560   23.8855   30.2032 N   0  0  0  0  0  0  0  0  0  0  0  0
  1  2  2  0
  2  3  1  0
  3  4  2  0
  4  5  1  0
  6  5  1  1
  6  7  1  0
  7  8  1  0
  8  9  1  6
  9 10  1  0
  8 11  1  0
 11 12  1  6
 11 13  1  0
 13 14  1  6
 13 15  1  0
 15 16  1  1
  5 17  1  0
 17 18  2  0
 17 19  1  0
 19  2  1  0
 15  6  1  0
M  END
>  <shape_align_shape_tanimoto>  (3) 
0.64385236769783727

>  <shape_align_color_tanimoto>  (3) 
0.11921407466764364

>  <metric>  (3) 
combo

>  <metric_score>  (3) 
0.382

>  <template_pid>  (3) 
3NPA

>  <template_shape_score>  (3) 
0.644

>  <template_color_score>  (3) 
0.119

>  <template_combo_score>  (3) 
0.382

$$$$
