2GIU_shape_pose
     RDKit          3D

 20 22  0  0  0  0  0  0  0  0999 V2000
    7.0633   -2.4327   -5.2596 C   0  0  0  0  0  0  0  0  0  0  0  0
    5.8790   -3.0081   -5.8815 C   0  0  0  0  0  0  0  0  0  0  0  0
    5.0817   -2.3239   -6.8942 C   0  0  0  0  0  0  0  0  0  0  0  0
    4.3737   -1.0766   -6.7196 C   0  0  0  0  0  0  0  0  0  0  0  0
    4.9228    0.2323   -6.4167 C   0  0  1  0  0  0  0  0  0  0  0  0
    3.7209    1.2366   -6.3399 C   0  0  0  0  0  0  0  0  0  0  0  0
    2.7412    0.7544   -5.2972 C   0  0  0  0  0  0  0  0  0  0  0  0
    3.4326    0.1610   -4.1099 C   0  0  0  0  0  0  0  0  0  0  0  0
    2.8720   -0.5389   -3.2526 O   0  0  0  0  0  0  0  0  0  0  0  0
    4.8769    0.4684   -4.0121 C   0  0  0  0  0  0  0  0  0  0  0  0
    5.6230    0.7805   -2.2803 Br  0  0  0  0  0  0  0  0  0  0  0  0
    5.5665    0.4998   -5.1213 C   0  0  0  0  0  0  0  0  0  0  0  0
    6.9934    0.8319   -5.3219 C   0  0  0  0  0  0  0  0  0  0  0  0
    8.0740    0.9849   -4.4869 C   0  0  0  0  0  0  0  0  0  0  0  0
    9.3317    1.3114   -5.0016 C   0  0  0  0  0  0  0  0  0  0  0  0
    9.5095    1.4863   -6.3651 C   0  0  0  0  0  0  0  0  0  0  0  0
   10.7250    1.8089   -6.9338 O   0  0  0  0  0  0  0  0  0  0  0  0
    8.4093    1.3274   -7.1849 C   0  0  0  0  0  0  0  0  0  0  0  0
    7.1744    1.0067   -6.6780 C   0  0  0  0  0  0  0  0  0  0  0  0
    5.8963    0.7999   -7.4122 C   0  0  0  0  0  0  0  0  0  0  0  0
  1  2  1  0
  2  3  1  0
  3  4  1  0
  5  4  1  6
  5  6  1  0
  6  7  1  0
  7  8  1  0
  8  9  2  0
  8 10  1  0
 10 11  1  0
 10 12  2  0
 12 13  1  0
 13 14  2  0
 14 15  1  0
 15 16  2  0
 16 17  1  0
 16 18  1  0
 18 19  2  0
 19 20  1  0
 12  5  1  0
 19 13  1  0
 20  5  1  0
M  END
>  <shape_align_shape_tanimoto>  (1) 
0.75968060815756688

>  <shape_align_color_tanimoto>  (1) 
0.084364015879396514

>  <metric>  (1) 
shape

>  <metric_score>  (1) 
0.760

>  <template_pid>  (1) 
2GIU

>  <template_shape_score>  (1) 
0.760

>  <template_color_score>  (1) 
0.084

>  <template_combo_score>  (1) 
0.422

$$$$
2GIU_color_pose
     RDKit          3D

 20 22  0  0  0  0  0  0  0  0999 V2000
    6.7165   -4.3377   -2.6779 C   0  0  0  0  0  0  0  0  0  0  0  0
    6.6721   -3.2245   -3.7602 C   0  0  0  0  0  0  0  0  0  0  0  0
    5.8161   -2.1677   -3.1976 C   0  0  0  0  0  0  0  0  0  0  0  0
    5.5668   -0.9225   -3.9161 C   0  0  0  0  0  0  0  0  0  0  0  0
    4.9556   -0.8716   -5.2491 C   0  0  1  0  0  0  0  0  0  0  0  0
    3.6068   -1.4889   -5.3747 C   0  0  0  0  0  0  0  0  0  0  0  0
    2.4534   -0.6828   -4.8714 C   0  0  0  0  0  0  0  0  0  0  0  0
    2.4641    0.7050   -5.4064 C   0  0  0  0  0  0  0  0  0  0  0  0
    1.3974    1.2992   -5.6318 O   0  0  0  0  0  0  0  0  0  0  0  0
    3.7917    1.2903   -5.6369 C   0  0  0  0  0  0  0  0  0  0  0  0
    3.8025    3.1731   -6.0513 Br  0  0  0  0  0  0  0  0  0  0  0  0
    4.9013    0.6214   -5.5740 C   0  0  0  0  0  0  0  0  0  0  0  0
    6.2963    1.0140   -5.7569 C   0  0  0  0  0  0  0  0  0  0  0  0
    6.9180    2.2261   -5.5515 C   0  0  0  0  0  0  0  0  0  0  0  0
    8.2812    2.3015   -5.8081 C   0  0  0  0  0  0  0  0  0  0  0  0
    8.9584    1.1727   -6.2549 C   0  0  0  0  0  0  0  0  0  0  0  0
   10.3304    1.3243   -6.4923 O   0  0  0  0  0  0  0  0  0  0  0  0
    8.3124   -0.0382   -6.4552 C   0  0  0  0  0  0  0  0  0  0  0  0
    6.9516   -0.1152   -6.1996 C   0  0  0  0  0  0  0  0  0  0  0  0
    5.9467   -1.2403   -6.3105 C   0  0  0  0  0  0  0  0  0  0  0  0
  1  2  1  0
  2  3  1  0
  3  4  1  0
  5  4  1  1
  5  6  1  0
  6  7  1  0
  7  8  1  0
  8  9  2  0
  8 10  1  0
 10 11  1  0
 10 12  2  0
 12 13  1  0
 13 14  2  0
 14 15  1  0
 15 16  2  0
 16 17  1  0
 16 18  1  0
 18 19  2  0
 19 20  1  0
 12  5  1  0
 19 13  1  0
 20  5  1  0
M  END
>  <shape_align_shape_tanimoto>  (2) 
0.63076977885204466

>  <shape_align_color_tanimoto>  (2) 
0.17216342434501902

>  <metric>  (2) 
color

>  <metric_score>  (2) 
0.172

>  <template_pid>  (2) 
2GIU

>  <template_shape_score>  (2) 
0.631

>  <template_color_score>  (2) 
0.172

>  <template_combo_score>  (2) 
0.401

$$$$
2GIU_combo_pose
     RDKit          3D

 20 22  0  0  0  0  0  0  0  0999 V2000
    4.1751   -0.1675   -2.3166 C   0  0  0  0  0  0  0  0  0  0  0  0
    5.6219   -0.5380   -2.6692 C   0  0  0  0  0  0  0  0  0  0  0  0
    5.5856   -1.8226   -3.4352 C   0  0  0  0  0  0  0  0  0  0  0  0
    4.8547   -1.7859   -4.6986 C   0  0  0  0  0  0  0  0  0  0  0  0
    5.2588   -0.9695   -5.8397 C   0  0  1  0  0  0  0  0  0  0  0  0
    4.1950   -1.2497   -6.9509 C   0  0  0  0  0  0  0  0  0  0  0  0
    2.8437   -0.8814   -6.4304 C   0  0  0  0  0  0  0  0  0  0  0  0
    2.8611    0.4072   -5.6460 C   0  0  0  0  0  0  0  0  0  0  0  0
    1.8774    0.8221   -5.0121 O   0  0  0  0  0  0  0  0  0  0  0  0
    4.1145    1.1697   -5.6613 C   0  0  0  0  0  0  0  0  0  0  0  0
    4.0441    3.0700   -5.5426 Br  0  0  0  0  0  0  0  0  0  0  0  0
    5.2489    0.4912   -5.7557 C   0  0  0  0  0  0  0  0  0  0  0  0
    6.6104    1.0091   -5.8362 C   0  0  0  0  0  0  0  0  0  0  0  0
    7.2273    2.2247   -5.6306 C   0  0  0  0  0  0  0  0  0  0  0  0
    8.5956    2.4079   -5.7920 C   0  0  0  0  0  0  0  0  0  0  0  0
    9.3823    1.3406   -6.1731 C   0  0  0  0  0  0  0  0  0  0  0  0
   10.7571    1.5394   -6.3317 O   0  0  0  0  0  0  0  0  0  0  0  0
    8.7784    0.1187   -6.3823 C   0  0  0  0  0  0  0  0  0  0  0  0
    7.3982   -0.0487   -6.2152 C   0  0  0  0  0  0  0  0  0  0  0  0
    6.6184   -1.2880   -6.4044 C   0  0  0  0  0  0  0  0  0  0  0  0
  1  2  1  0
  2  3  1  0
  3  4  1  0
  5  4  1  1
  5  6  1  0
  6  7  1  0
  7  8  1  0
  8  9  2  0
  8 10  1  0
 10 11  1  0
 10 12  2  0
 12 13  1  0
 13 14  2  0
 14 15  1  0
 15 16  2  0
 16 17  1  0
 16 18  1  0
 18 19  2  0
 19 20  1  0
 12  5  1  0
 19 13  1  0
 20  5  1  0
M  END
>  <shape_align_shape_tanimoto>  (3) 
0.69149683599246536

>  <shape_align_color_tanimoto>  (3) 
0.15632034542025583

>  <metric>  (3) 
combo

>  <metric_score>  (3) 
0.424

>  <template_pid>  (3) 
2GIU

>  <template_shape_score>  (3) 
0.691

>  <template_color_score>  (3) 
0.156

>  <template_combo_score>  (3) 
0.424

$$$$
