5SYN_shape_pose
     RDKit          3D

 31 35  0  0  0  0  0  0  0  0999 V2000
  -16.3415    8.1787   -8.7165 C   0  0  0  0  0  0  0  0  0  0  0  0
  -17.3120    7.7296   -9.6651 O   0  0  0  0  0  0  0  0  0  0  0  0
  -16.8952    7.1768  -10.8645 C   0  0  0  0  0  0  0  0  0  0  0  0
  -15.5438    7.0602  -11.1405 C   0  0  0  0  0  0  0  0  0  0  0  0
  -15.1734    6.5073  -12.3396 C   0  0  0  0  0  0  0  0  0  0  0  0
  -16.1109    6.0608  -13.2902 C   0  0  0  0  0  0  0  0  0  0  0  0
  -15.5582    5.4966  -14.4591 N   0  0  0  0  0  0  0  0  0  0  0  0
  -14.3032    4.7558  -14.2772 C   0  0  0  0  0  0  0  0  0  0  0  0
  -14.2763    3.4789  -15.0858 C   0  0  0  0  0  0  0  0  0  0  0  0
  -14.7552    3.6780  -16.4495 N   0  0  0  0  0  0  0  0  0  0  0  0
  -14.9281    2.5842  -17.3444 C   0  0  0  0  0  0  0  0  0  0  0  0
  -15.3246    2.8163  -18.5185 O   0  0  0  0  0  0  0  0  0  0  0  0
  -14.6389    1.2634  -16.8569 C   0  0  0  0  0  0  0  0  0  0  0  0
  -15.3784    0.1468  -16.9800 C   0  0  0  0  0  0  0  0  0  0  0  0
  -14.9324   -1.0084  -16.4141 C   0  0  0  0  0  0  0  0  0  0  0  0
  -13.7801   -0.9849  -15.7558 C   0  0  0  0  0  0  0  0  0  0  0  0
  -13.1779    0.7840  -15.8940 S   0  0  0  0  0  0  0  0  0  0  0  0
  -13.1123   -1.9473  -14.9296 C   0  0  0  0  0  0  0  0  0  0  0  0
  -11.8169   -1.7620  -14.4490 C   0  0  0  0  0  0  0  0  0  0  0  0
  -11.2010   -2.8110  -13.7644 C   0  0  0  0  0  0  0  0  0  0  0  0
  -11.8330   -4.0163  -13.5527 C   0  0  0  0  0  0  0  0  0  0  0  0
  -13.1312   -4.1947  -14.0363 C   0  0  0  0  0  0  0  0  0  0  0  0
  -13.6943   -3.1548  -14.6913 C   0  0  0  0  0  0  0  0  0  0  0  0
  -15.3957   -3.3031  -15.1355 S   0  0  0  0  0  0  0  0  0  0  0  0
  -15.8097   -4.7291  -15.3144 O   0  0  0  0  0  0  0  0  0  0  0  0
  -16.2161   -2.6402  -14.0362 O   0  0  0  0  0  0  0  0  0  0  0  0
  -15.6079   -2.3667  -16.5904 C   0  0  0  0  0  0  0  0  0  0  0  0
  -15.0585    5.0520  -16.8077 C   0  0  0  0  0  0  0  0  0  0  0  0
  -16.0818    5.6118  -15.7870 C   0  0  0  0  0  0  0  0  0  0  0  0
  -17.4473    6.1769  -13.0160 C   0  0  0  0  0  0  0  0  0  0  0  0
  -17.8510    6.7396  -11.7918 C   0  0  0  0  0  0  0  0  0  0  0  0
  1  2  1  0
  2  3  1  0
  3  4  2  0
  4  5  1  0
  5  6  2  0
  6  7  1  0
  7  8  1  0
  8  9  1  0
  9 10  1  0
 10 11  1  0
 11 12  2  0
 11 13  1  0
 13 14  2  0
 14 15  1  0
 15 16  2  0
 16 17  1  0
 16 18  1  0
 18 19  2  0
 19 20  1  0
 20 21  2  0
 21 22  1  0
 22 23  2  0
 23 24  1  0
 24 25  2  0
 24 26  2  0
 24 27  1  0
 10 28  1  0
 28 29  1  0
  6 30  1  0
 30 31  2  0
 31  3  1  0
 29  7  1  0
 17 13  1  0
 23 18  1  0
 27 15  1  0
M  END
>  <shape_align_shape_tanimoto>  (1) 
0.72137996229486501

>  <shape_align_color_tanimoto>  (1) 
0.036627598400371518

>  <metric>  (1) 
shape

>  <metric_score>  (1) 
0.721

>  <template_pid>  (1) 
5SYN

>  <template_shape_score>  (1) 
0.721

>  <template_color_score>  (1) 
0.037

>  <template_combo_score>  (1) 
0.379

$$$$
5SYN_color_pose
     RDKit          3D

 31 35  0  0  0  0  0  0  0  0999 V2000
  -17.8698   -4.0291  -13.0454 C   0  0  0  0  0  0  0  0  0  0  0  0
  -16.5555   -3.5971  -12.9179 O   0  0  0  0  0  0  0  0  0  0  0  0
  -15.7278   -3.0903  -13.8799 C   0  0  0  0  0  0  0  0  0  0  0  0
  -14.4424   -2.7291  -13.4741 C   0  0  0  0  0  0  0  0  0  0  0  0
  -13.5405   -2.2043  -14.3846 C   0  0  0  0  0  0  0  0  0  0  0  0
  -13.8676   -2.0154  -15.7226 C   0  0  0  0  0  0  0  0  0  0  0  0
  -12.8894   -1.4028  -16.5406 N   0  0  0  0  0  0  0  0  0  0  0  0
  -12.6852   -1.7337  -17.9613 C   0  0  0  0  0  0  0  0  0  0  0  0
  -12.3826   -0.4027  -18.6722 C   0  0  0  0  0  0  0  0  0  0  0  0
  -12.9806    0.6666  -17.9223 N   0  0  0  0  0  0  0  0  0  0  0  0
  -14.1148    1.4607  -18.3601 C   0  0  0  0  0  0  0  0  0  0  0  0
  -14.6128    1.3848  -19.4773 O   0  0  0  0  0  0  0  0  0  0  0  0
  -14.5978    2.3526  -17.2807 C   0  0  0  0  0  0  0  0  0  0  0  0
  -14.5896    3.6276  -16.9164 C   0  0  0  0  0  0  0  0  0  0  0  0
  -15.2150    3.9619  -15.7193 C   0  0  0  0  0  0  0  0  0  0  0  0
  -15.7689    3.0055  -15.0312 C   0  0  0  0  0  0  0  0  0  0  0  0
  -15.4780    1.5032  -15.9960 S   0  0  0  0  0  0  0  0  0  0  0  0
  -16.4396    2.9366  -13.7572 C   0  0  0  0  0  0  0  0  0  0  0  0
  -17.0153    1.7818  -13.2350 C   0  0  0  0  0  0  0  0  0  0  0  0
  -17.6886    1.7480  -12.0431 C   0  0  0  0  0  0  0  0  0  0  0  0
  -17.7886    2.9398  -11.3392 C   0  0  0  0  0  0  0  0  0  0  0  0
  -17.2235    4.1235  -11.8329 C   0  0  0  0  0  0  0  0  0  0  0  0
  -16.5655    4.0821  -13.0255 C   0  0  0  0  0  0  0  0  0  0  0  0
  -15.7886    5.5184  -13.6342 S   0  0  0  0  0  0  0  0  0  0  0  0
  -14.6977    5.9790  -12.6926 O   0  0  0  0  0  0  0  0  0  0  0  0
  -16.8472    6.6150  -13.5392 O   0  0  0  0  0  0  0  0  0  0  0  0
  -15.2663    5.4382  -15.2790 C   0  0  0  0  0  0  0  0  0  0  0  0
  -12.3190    0.9584  -16.6454 C   0  0  0  0  0  0  0  0  0  0  0  0
  -12.0852   -0.3546  -15.9128 C   0  0  0  0  0  0  0  0  0  0  0  0
  -15.1282   -2.3708  -16.1231 C   0  0  0  0  0  0  0  0  0  0  0  0
  -16.0421   -2.9016  -15.2018 C   0  0  0  0  0  0  0  0  0  0  0  0
  1  2  1  0
  2  3  1  0
  3  4  2  0
  4  5  1  0
  5  6  2  0
  6  7  1  0
  7  8  1  0
  8  9  1  0
  9 10  1  0
 10 11  1  0
 11 12  2  0
 11 13  1  0
 13 14  2  0
 14 15  1  0
 15 16  2  0
 16 17  1  0
 16 18  1  0
 18 19  2  0
 19 20  1  0
 20 21  2  0
 21 22  1  0
 22 23  2  0
 23 24  1  0
 24 25  2  0
 24 26  2  0
 24 27  1  0
 10 28  1  0
 28 29  1  0
  6 30  1  0
 30 31  2  0
 31  3  1  0
 29  7  1  0
 17 13  1  0
 23 18  1  0
 27 15  1  0
M  END
>  <shape_align_shape_tanimoto>  (2) 
0.46166203092383967

>  <shape_align_color_tanimoto>  (2) 
0.10996181829457155

>  <metric>  (2) 
color

>  <metric_score>  (2) 
0.110

>  <template_pid>  (2) 
5SYN

>  <template_shape_score>  (2) 
0.462

>  <template_color_score>  (2) 
0.110

>  <template_combo_score>  (2) 
0.286

$$$$
5SYN_combo_pose
     RDKit          3D

 31 35  0  0  0  0  0  0  0  0999 V2000
  -16.3415    8.1787   -8.7165 C   0  0  0  0  0  0  0  0  0  0  0  0
  -17.3120    7.7296   -9.6651 O   0  0  0  0  0  0  0  0  0  0  0  0
  -16.8952    7.1768  -10.8645 C   0  0  0  0  0  0  0  0  0  0  0  0
  -15.5438    7.0602  -11.1405 C   0  0  0  0  0  0  0  0  0  0  0  0
  -15.1734    6.5073  -12.3396 C   0  0  0  0  0  0  0  0  0  0  0  0
  -16.1109    6.0608  -13.2902 C   0  0  0  0  0  0  0  0  0  0  0  0
  -15.5582    5.4966  -14.4591 N   0  0  0  0  0  0  0  0  0  0  0  0
  -14.3032    4.7558  -14.2772 C   0  0  0  0  0  0  0  0  0  0  0  0
  -14.2763    3.4789  -15.0858 C   0  0  0  0  0  0  0  0  0  0  0  0
  -14.7552    3.6780  -16.4495 N   0  0  0  0  0  0  0  0  0  0  0  0
  -14.9281    2.5842  -17.3444 C   0  0  0  0  0  0  0  0  0  0  0  0
  -15.3246    2.8163  -18.5185 O   0  0  0  0  0  0  0  0  0  0  0  0
  -14.6389    1.2634  -16.8569 C   0  0  0  0  0  0  0  0  0  0  0  0
  -15.3784    0.1468  -16.9800 C   0  0  0  0  0  0  0  0  0  0  0  0
  -14.9324   -1.0084  -16.4141 C   0  0  0  0  0  0  0  0  0  0  0  0
  -13.7801   -0.9849  -15.7558 C   0  0  0  0  0  0  0  0  0  0  0  0
  -13.1779    0.7840  -15.8940 S   0  0  0  0  0  0  0  0  0  0  0  0
  -13.1123   -1.9473  -14.9296 C   0  0  0  0  0  0  0  0  0  0  0  0
  -11.8169   -1.7620  -14.4490 C   0  0  0  0  0  0  0  0  0  0  0  0
  -11.2010   -2.8110  -13.7644 C   0  0  0  0  0  0  0  0  0  0  0  0
  -11.8330   -4.0163  -13.5527 C   0  0  0  0  0  0  0  0  0  0  0  0
  -13.1312   -4.1947  -14.0363 C   0  0  0  0  0  0  0  0  0  0  0  0
  -13.6943   -3.1548  -14.6913 C   0  0  0  0  0  0  0  0  0  0  0  0
  -15.3957   -3.3031  -15.1355 S   0  0  0  0  0  0  0  0  0  0  0  0
  -15.8097   -4.7291  -15.3144 O   0  0  0  0  0  0  0  0  0  0  0  0
  -16.2161   -2.6402  -14.0362 O   0  0  0  0  0  0  0  0  0  0  0  0
  -15.6079   -2.3667  -16.5904 C   0  0  0  0  0  0  0  0  0  0  0  0
  -15.0585    5.0520  -16.8077 C   0  0  0  0  0  0  0  0  0  0  0  0
  -16.0818    5.6118  -15.7870 C   0  0  0  0  0  0  0  0  0  0  0  0
  -17.4473    6.1769  -13.0160 C   0  0  0  0  0  0  0  0  0  0  0  0
  -17.8510    6.7396  -11.7918 C   0  0  0  0  0  0  0  0  0  0  0  0
  1  2  1  0
  2  3  1  0
  3  4  2  0
  4  5  1  0
  5  6  2  0
  6  7  1  0
  7  8  1  0
  8  9  1  0
  9 10  1  0
 10 11  1  0
 11 12  2  0
 11 13  1  0
 13 14  2  0
 14 15  1  0
 15 16  2  0
 16 17  1  0
 16 18  1  0
 18 19  2  0
 19 20  1  0
 20 21  2  0
 21 22  1  0
 22 23  2  0
 23 24  1  0
 24 25  2  0
 24 26  2  0
 24 27  1  0
 10 28  1  0
 28 29  1  0
  6 30  1  0
 30 31  2  0
 31  3  1  0
 29  7  1  0
 17 13  1  0
 23 18  1  0
 27 15  1  0
M  END
>  <shape_align_shape_tanimoto>  (3) 
0.72137996229486501

>  <shape_align_color_tanimoto>  (3) 
0.036627598400371518

>  <metric>  (3) 
combo

>  <metric_score>  (3) 
0.379

>  <template_pid>  (3) 
5SYN

>  <template_shape_score>  (3) 
0.721

>  <template_color_score>  (3) 
0.037

>  <template_combo_score>  (3) 
0.379

$$$$
