3JSW_shape_pose
     RDKit          3D

 26 29  0  0  0  0  0  0  0  0999 V2000
   26.5965   -9.0856   31.2546 C   0  0  0  0  0  0  0  0  0  0  0  0
   25.7745   -7.8905   31.6964 C   0  0  0  0  0  0  0  0  0  0  0  0
   25.2090   -7.2599   30.4732 C   0  0  0  0  0  0  0  0  0  0  0  0
   24.8052   -8.3678   32.6504 N   0  0  0  0  0  0  0  0  0  0  0  0
   24.7798   -9.5592   33.2691 N   0  0  0  0  0  0  0  0  0  0  0  0
   23.7246   -9.6087   34.0711 C   0  0  0  0  0  0  0  0  0  0  0  0
   23.0376   -8.4341   33.9855 C   0  0  0  0  0  0  0  0  0  0  0  0
   21.9085   -7.8989   34.5474 C   0  0  0  0  0  0  0  0  0  0  0  0
   21.2458   -8.5582   35.3674 O   0  0  0  0  0  0  0  0  0  0  0  0
   21.4985   -6.6585   34.2245 N   0  0  0  0  0  0  0  0  0  0  0  0
   22.1776   -5.8769   33.3308 C   0  0  0  0  0  0  0  0  0  0  0  0
   21.6355   -4.5495   33.0629 C   0  0  2  0  0  0  0  0  0  0  0  0
   21.1660   -4.5118   31.6140 C   0  0  0  0  0  0  0  0  0  0  0  0
   22.0481   -3.5673   31.0085 N   0  0  1  0  0  0  0  0  0  0  0  0
   21.6560   -3.0454   29.7435 C   0  0  0  0  0  0  0  0  0  0  0  0
   20.6946   -3.9662   29.1071 C   0  0  0  0  0  0  0  0  0  0  0  0
   21.1693   -5.0148   28.3180 C   0  0  0  0  0  0  0  0  0  0  0  0
   20.3012   -5.9005   27.6942 C   0  0  0  0  0  0  0  0  0  0  0  0
   18.9380   -5.7557   27.8468 C   0  0  0  0  0  0  0  0  0  0  0  0
   18.4399   -4.7239   28.6242 C   0  0  0  0  0  0  0  0  0  0  0  0
   19.3253   -3.8635   29.2287 C   0  0  0  0  0  0  0  0  0  0  0  0
   22.1093   -2.5164   32.0398 C   0  0  0  0  0  0  0  0  0  0  0  0
   22.5827   -3.4024   33.2067 C   0  0  1  0  0  0  0  0  0  0  0  0
   22.4575   -2.6724   34.5243 C   0  0  0  0  0  0  0  0  0  0  0  0
   23.2675   -6.4048   32.7941 N   0  0  0  0  0  0  0  0  0  0  0  0
   23.7284   -7.6517   33.0827 C   0  0  0  0  0  0  0  0  0  0  0  0
  1  2  1  0
  2  3  1  0
  2  4  1  0
  4  5  1  0
  5  6  2  0
  6  7  1  0
  7  8  1  0
  8  9  2  0
  8 10  1  0
 10 11  2  0
 12 11  1  6
 12 13  1  0
 13 14  1  0
 14 15  1  6
 15 16  1  0
 16 17  2  0
 17 18  1  0
 18 19  2  0
 19 20  1  0
 20 21  2  0
 14 22  1  0
 22 23  1  0
 23 24  1  1
 11 25  1  0
 25 26  1  0
 26  4  1  0
 26  7  2  0
 23 12  1  0
 21 16  1  0
M  CHG  1  14   1
M  END
>  <shape_align_shape_tanimoto>  (1) 
0.80948901199413592

>  <shape_align_color_tanimoto>  (1) 
0.12732302985617489

>  <metric>  (1) 
shape

>  <metric_score>  (1) 
0.809

>  <template_pid>  (1) 
3JSW

>  <template_shape_score>  (1) 
0.809

>  <template_color_score>  (1) 
0.127

>  <template_combo_score>  (1) 
0.468

$$$$
3JSW_color_pose
     RDKit          3D

 26 29  0  0  0  0  0  0  0  0999 V2000
   24.9987   -8.9554   30.4783 C   0  0  0  0  0  0  0  0  0  0  0  0
   25.8315   -8.7039   31.7255 C   0  0  0  0  0  0  0  0  0  0  0  0
   26.9990   -9.6596   31.8070 C   0  0  0  0  0  0  0  0  0  0  0  0
   24.9892   -8.8576   32.9030 N   0  0  0  0  0  0  0  0  0  0  0  0
   25.1635   -9.7591   33.8604 N   0  0  0  0  0  0  0  0  0  0  0  0
   24.2019   -9.6134   34.7913 C   0  0  0  0  0  0  0  0  0  0  0  0
   23.4175   -8.5798   34.3736 C   0  0  0  0  0  0  0  0  0  0  0  0
   22.2944   -7.9629   34.8860 C   0  0  0  0  0  0  0  0  0  0  0  0
   21.8059   -8.3664   35.9733 O   0  0  0  0  0  0  0  0  0  0  0  0
   21.7071   -6.9314   34.2416 N   0  0  0  0  0  0  0  0  0  0  0  0
   22.2085   -6.4679   33.0621 C   0  0  0  0  0  0  0  0  0  0  0  0
   21.5090   -5.3350   32.4177 C   0  0  2  0  0  0  0  0  0  0  0  0
   20.9469   -5.6792   31.0545 C   0  0  0  0  0  0  0  0  0  0  0  0
   21.7138   -4.8606   30.1683 N   0  0  1  0  0  0  0  0  0  0  0  0
   21.2127   -4.7528   28.8377 C   0  0  0  0  0  0  0  0  0  0  0  0
   20.1509   -3.7624   28.6290 C   0  0  0  0  0  0  0  0  0  0  0  0
   20.5258   -2.4609   28.2850 C   0  0  0  0  0  0  0  0  0  0  0  0
   19.5768   -1.4817   28.0748 C   0  0  0  0  0  0  0  0  0  0  0  0
   18.2389   -1.8182   28.2125 C   0  0  0  0  0  0  0  0  0  0  0  0
   17.8347   -3.1005   28.5527 C   0  0  0  0  0  0  0  0  0  0  0  0
   18.7956   -4.0717   28.7605 C   0  0  0  0  0  0  0  0  0  0  0  0
   21.8194   -3.6082   30.8765 C   0  0  0  0  0  0  0  0  0  0  0  0
   22.3584   -4.1087   32.2225 C   0  0  1  0  0  0  0  0  0  0  0  0
   22.1646   -3.0941   33.3200 C   0  0  0  0  0  0  0  0  0  0  0  0
   23.2871   -7.0607   32.5704 N   0  0  0  0  0  0  0  0  0  0  0  0
   23.9100   -8.0965   33.1788 C   0  0  0  0  0  0  0  0  0  0  0  0
  1  2  1  0
  2  3  1  0
  2  4  1  0
  4  5  1  0
  5  6  2  0
  6  7  1  0
  7  8  1  0
  8  9  2  0
  8 10  1  0
 10 11  2  0
 12 11  1  6
 12 13  1  0
 13 14  1  0
 14 15  1  6
 15 16  1  0
 16 17  2  0
 17 18  1  0
 18 19  2  0
 19 20  1  0
 20 21  2  0
 14 22  1  0
 22 23  1  0
 23 24  1  1
 11 25  1  0
 25 26  1  0
 26  4  1  0
 26  7  2  0
 23 12  1  0
 21 16  1  0
M  CHG  1  14   1
M  END
>  <shape_align_shape_tanimoto>  (2) 
0.5512877483783365

>  <shape_align_color_tanimoto>  (2) 
0.13911196521556979

>  <metric>  (2) 
color

>  <metric_score>  (2) 
0.139

>  <template_pid>  (2) 
3JSW

>  <template_shape_score>  (2) 
0.551

>  <template_color_score>  (2) 
0.139

>  <template_combo_score>  (2) 
0.345

$$$$
3JSW_combo_pose
     RDKit          3D

 26 29  0  0  0  0  0  0  0  0999 V2000
   26.5965   -9.0856   31.2546 C   0  0  0  0  0  0  0  0  0  0  0  0
   25.7745   -7.8905   31.6964 C   0  0  0  0  0  0  0  0  0  0  0  0
   25.2090   -7.2599   30.4732 C   0  0  0  0  0  0  0  0  0  0  0  0
   24.8052   -8.3678   32.6504 N   0  0  0  0  0  0  0  0  0  0  0  0
   24.7798   -9.5592   33.2691 N   0  0  0  0  0  0  0  0  0  0  0  0
   23.7246   -9.6087   34.0711 C   0  0  0  0  0  0  0  0  0  0  0  0
   23.0376   -8.4341   33.9855 C   0  0  0  0  0  0  0  0  0  0  0  0
   21.9085   -7.8989   34.5474 C   0  0  0  0  0  0  0  0  0  0  0  0
   21.2458   -8.5582   35.3674 O   0  0  0  0  0  0  0  0  0  0  0  0
   21.4985   -6.6585   34.2245 N   0  0  0  0  0  0  0  0  0  0  0  0
   22.1776   -5.8769   33.3308 C   0  0  0  0  0  0  0  0  0  0  0  0
   21.6355   -4.5495   33.0629 C   0  0  2  0  0  0  0  0  0  0  0  0
   21.1660   -4.5118   31.6140 C   0  0  0  0  0  0  0  0  0  0  0  0
   22.0481   -3.5673   31.0085 N   0  0  1  0  0  0  0  0  0  0  0  0
   21.6560   -3.0454   29.7435 C   0  0  0  0  0  0  0  0  0  0  0  0
   20.6946   -3.9662   29.1071 C   0  0  0  0  0  0  0  0  0  0  0  0
   21.1693   -5.0148   28.3180 C   0  0  0  0  0  0  0  0  0  0  0  0
   20.3012   -5.9005   27.6942 C   0  0  0  0  0  0  0  0  0  0  0  0
   18.9380   -5.7557   27.8468 C   0  0  0  0  0  0  0  0  0  0  0  0
   18.4399   -4.7239   28.6242 C   0  0  0  0  0  0  0  0  0  0  0  0
   19.3253   -3.8635   29.2287 C   0  0  0  0  0  0  0  0  0  0  0  0
   22.1093   -2.5164   32.0398 C   0  0  0  0  0  0  0  0  0  0  0  0
   22.5827   -3.4024   33.2067 C   0  0  1  0  0  0  0  0  0  0  0  0
   22.4575   -2.6724   34.5243 C   0  0  0  0  0  0  0  0  0  0  0  0
   23.2675   -6.4048   32.7941 N   0  0  0  0  0  0  0  0  0  0  0  0
   23.7284   -7.6517   33.0827 C   0  0  0  0  0  0  0  0  0  0  0  0
  1  2  1  0
  2  3  1  0
  2  4  1  0
  4  5  1  0
  5  6  2  0
  6  7  1  0
  7  8  1  0
  8  9  2  0
  8 10  1  0
 10 11  2  0
 12 11  1  6
 12 13  1  0
 13 14  1  0
 14 15  1  6
 15 16  1  0
 16 17  2  0
 17 18  1  0
 18 19  2  0
 19 20  1  0
 20 21  2  0
 14 22  1  0
 22 23  1  0
 23 24  1  1
 11 25  1  0
 25 26  1  0
 26  4  1  0
 26  7  2  0
 23 12  1  0
 21 16  1  0
M  CHG  1  14   1
M  END
>  <shape_align_shape_tanimoto>  (3) 
0.80948901199413592

>  <shape_align_color_tanimoto>  (3) 
0.12732302985617489

>  <metric>  (3) 
combo

>  <metric_score>  (3) 
0.468

>  <template_pid>  (3) 
3JSW

>  <template_shape_score>  (3) 
0.809

>  <template_color_score>  (3) 
0.127

>  <template_combo_score>  (3) 
0.468

$$$$
