2F9K_shape_pose
     RDKit          3D

 16 16  0  0  0  0  0  0  0  0999 V2000
   20.0317  -45.6688  -12.1488 O   0  0  0  0  0  0  0  0  0  0  0  0
   20.0429  -46.0930  -10.7148 P   0  0  0  0  0  0  0  0  0  0  0  0
   20.1468  -47.7826  -10.6384 O   0  0  0  0  0  0  0  0  0  0  0  0
   18.5713  -45.6293  -10.0182 O   0  0  0  0  0  0  0  0  0  0  0  0
   21.4373  -45.4059   -9.7911 C   0  0  0  0  0  0  0  0  0  0  0  0
   22.0006  -46.3845   -8.9743 O   0  0  0  0  0  0  0  0  0  0  0  0
   20.9193  -44.3297   -8.8679 C   0  0  0  0  0  0  0  0  0  0  0  0
   21.9429  -43.7043   -8.0681 N   0  0  0  0  0  0  0  0  0  0  0  0
   22.7059  -42.6262   -8.2982 C   0  0  0  0  0  0  0  0  0  0  0  0
   23.5638  -42.3858   -7.2498 C   0  0  0  0  0  0  0  0  0  0  0  0
   23.3049  -43.3602   -6.3529 N   0  0  0  0  0  0  0  0  0  0  0  0
   22.3348  -44.1512   -6.8403 C   0  0  0  0  0  0  0  0  0  0  0  0
   22.6963  -44.7175  -10.8536 P   0  0  0  0  0  0  0  0  0  0  0  0
   23.9127  -44.3949  -10.0174 O   0  0  0  0  0  0  0  0  0  0  0  0
   23.2136  -45.7998  -12.0412 O   0  0  0  0  0  0  0  0  0  0  0  0
   22.1920  -43.2577  -11.5724 O   0  0  0  0  0  0  0  0  0  0  0  0
  1  2  2  0
  2  3  1  0
  2  4  1  0
  2  5  1  0
  5  6  1  0
  5  7  1  0
  7  8  1  0
  8  9  1  0
  9 10  2  0
 10 11  1  0
 11 12  2  0
  5 13  1  0
 13 14  2  0
 13 15  1  0
 13 16  1  0
 12  8  1  0
M  END
>  <shape_align_shape_tanimoto>  (1) 
0.42358898598041916

>  <shape_align_color_tanimoto>  (1) 
0.013026381237031962

>  <metric>  (1) 
shape

>  <metric_score>  (1) 
0.424

>  <template_pid>  (1) 
2F9K

>  <template_shape_score>  (1) 
0.424

>  <template_color_score>  (1) 
0.013

>  <template_combo_score>  (1) 
0.218

$$$$
2F9K_color_pose
     RDKit          3D

 16 16  0  0  0  0  0  0  0  0999 V2000
   18.9684  -50.2879  -10.3430 O   0  0  0  0  0  0  0  0  0  0  0  0
   19.3353  -48.8865  -10.6938 P   0  0  0  0  0  0  0  0  0  0  0  0
   19.3710  -47.9768   -9.2801 O   0  0  0  0  0  0  0  0  0  0  0  0
   18.1607  -48.2208  -11.6964 O   0  0  0  0  0  0  0  0  0  0  0  0
   20.9227  -48.8524  -11.5707 C   0  0  0  0  0  0  0  0  0  0  0  0
   20.7290  -49.6675  -12.6889 O   0  0  0  0  0  0  0  0  0  0  0  0
   21.2319  -47.4720  -12.0810 C   0  0  0  0  0  0  0  0  0  0  0  0
   21.3292  -46.4525  -11.0847 N   0  0  0  0  0  0  0  0  0  0  0  0
   22.4596  -46.0765  -10.4170 C   0  0  0  0  0  0  0  0  0  0  0  0
   22.1295  -45.0475   -9.5285 C   0  0  0  0  0  0  0  0  0  0  0  0
   20.8111  -44.8240   -9.6773 N   0  0  0  0  0  0  0  0  0  0  0  0
   20.3199  -45.6618  -10.6090 C   0  0  0  0  0  0  0  0  0  0  0  0
   22.2318  -49.6216  -10.6290 P   0  0  0  0  0  0  0  0  0  0  0  0
   22.6650  -48.8586   -9.4090 O   0  0  0  0  0  0  0  0  0  0  0  0
   23.5269  -50.0788  -11.6150 O   0  0  0  0  0  0  0  0  0  0  0  0
   21.5793  -51.0885  -10.0283 O   0  0  0  0  0  0  0  0  0  0  0  0
  1  2  2  0
  2  3  1  0
  2  4  1  0
  2  5  1  0
  5  6  1  0
  5  7  1  0
  7  8  1  0
  8  9  1  0
  9 10  2  0
 10 11  1  0
 11 12  2  0
  5 13  1  0
 13 14  2  0
 13 15  1  0
 13 16  1  0
 12  8  1  0
M  END
>  <shape_align_shape_tanimoto>  (2) 
0.3613726335875444

>  <shape_align_color_tanimoto>  (2) 
0.12208279750457703

>  <metric>  (2) 
color

>  <metric_score>  (2) 
0.122

>  <template_pid>  (2) 
2F9K

>  <template_shape_score>  (2) 
0.361

>  <template_color_score>  (2) 
0.122

>  <template_combo_score>  (2) 
0.242

$$$$
2F9K_combo_pose
     RDKit          3D

 16 16  0  0  0  0  0  0  0  0999 V2000
   20.3249  -49.4432  -12.4863 O   0  0  0  0  0  0  0  0  0  0  0  0
   21.1434  -49.1641  -11.2430 P   0  0  0  0  0  0  0  0  0  0  0  0
   20.4809  -49.9610   -9.9280 O   0  0  0  0  0  0  0  0  0  0  0  0
   22.7244  -49.6994  -11.5619 O   0  0  0  0  0  0  0  0  0  0  0  0
   21.1618  -47.3672  -11.0148 C   0  0  0  0  0  0  0  0  0  0  0  0
   21.5957  -46.8572  -12.2505 O   0  0  0  0  0  0  0  0  0  0  0  0
   22.0708  -46.9906   -9.8983 C   0  0  0  0  0  0  0  0  0  0  0  0
   22.1619  -45.5911   -9.6299 N   0  0  0  0  0  0  0  0  0  0  0  0
   21.4554  -44.7975   -8.8068 C   0  0  0  0  0  0  0  0  0  0  0  0
   21.8963  -43.4932   -8.8758 C   0  0  0  0  0  0  0  0  0  0  0  0
   22.9125  -43.5114   -9.7820 N   0  0  0  0  0  0  0  0  0  0  0  0
   23.0612  -44.7740  -10.2259 C   0  0  0  0  0  0  0  0  0  0  0  0
   19.4771  -46.8616  -10.6431 P   0  0  0  0  0  0  0  0  0  0  0  0
   19.3262  -45.3584  -10.5532 O   0  0  0  0  0  0  0  0  0  0  0  0
   19.0275  -47.5071   -9.1475 O   0  0  0  0  0  0  0  0  0  0  0  0
   18.4791  -47.4923  -11.8625 O   0  0  0  0  0  0  0  0  0  0  0  0
  1  2  2  0
  2  3  1  0
  2  4  1  0
  2  5  1  0
  5  6  1  0
  5  7  1  0
  7  8  1  0
  8  9  1  0
  9 10  2  0
 10 11  1  0
 11 12  2  0
  5 13  1  0
 13 14  2  0
 13 15  1  0
 13 16  1  0
 12  8  1  0
M  END
>  <shape_align_shape_tanimoto>  (3) 
0.40582360536027229

>  <shape_align_color_tanimoto>  (3) 
0.092768668832575937

>  <metric>  (3) 
combo

>  <metric_score>  (3) 
0.249

>  <template_pid>  (3) 
2F9K

>  <template_shape_score>  (3) 
0.406

>  <template_color_score>  (3) 
0.093

>  <template_combo_score>  (3) 
0.249

$$$$
