5AH2_shape_pose
     RDKit          3D

 80 84  0  0  0  0  0  0  0  0999 V2000
   41.5851    4.1479   -8.4288 C   0  0  0  0  0  0  0  0  0  0  0  0
   40.9679    2.8179   -8.5410 C   0  0  0  0  0  0  0  0  0  0  0  0
   41.7217    1.7773   -8.5564 O   0  0  0  0  0  0  0  0  0  0  0  0
   39.5337    2.6392   -8.6368 N   0  0  0  0  0  0  0  0  0  0  0  0
   38.7389    3.8163   -8.6173 C   0  0  0  0  0  0  0  0  0  0  0  0
   39.0431    1.2581   -8.7486 C   0  0  2  0  0  0  0  0  0  0  0  0
   38.4163    1.0628  -10.1031 C   0  0  0  0  0  0  0  0  0  0  0  0
   37.7383    2.0685  -10.4948 O   0  0  0  0  0  0  0  0  0  0  0  0
   38.5703   -0.1171  -10.8626 N   0  0  0  0  0  0  0  0  0  0  0  0
   39.4226   -1.2593  -10.4373 C   0  0  0  0  0  0  0  0  0  0  0  0
   38.6943   -2.4801  -10.9373 C   0  0  2  0  0  0  0  0  0  0  0  0
   39.6376   -3.2591  -11.8576 C   0  0  0  0  0  0  0  0  0  0  0  0
   37.5259   -1.9346  -11.7145 C   0  0  0  0  0  0  0  0  0  0  0  0
   38.0637   -0.5609  -12.1196 C   0  0  1  0  0  0  0  0  0  0  0  0
   37.0121    0.2375  -12.7686 C   0  0  0  0  0  0  0  0  0  0  0  0
   36.2661    1.0642  -12.1933 O   0  0  0  0  0  0  0  0  0  0  0  0
   36.7751    0.0988  -14.1940 N   0  0  0  0  0  0  0  0  0  0  0  0
   37.6100   -0.8313  -14.9824 C   0  0  0  0  0  0  0  0  0  0  0  0
   35.7477    0.8530  -14.7989 C   0  0  2  0  0  0  0  0  0  0  0  0
   35.9481    2.3332  -14.8036 C   0  0  0  0  0  0  0  0  0  0  0  0
   35.0144    3.1302  -14.4422 O   0  0  0  0  0  0  0  0  0  0  0  0
   37.1815    2.9350  -15.2104 N   0  0  0  0  0  0  0  0  0  0  0  0
   37.0991    4.4203  -15.3374 C   0  0  1  0  0  0  0  0  0  0  0  0
   38.3306    5.1299  -14.9808 C   0  0  0  0  0  0  0  0  0  0  0  0
   38.7670    4.9036  -13.5577 C   0  0  0  0  0  0  0  0  0  0  0  0
   37.7356    5.3487  -12.5605 C   0  0  0  0  0  0  0  0  0  0  0  0
   39.1738    3.5023  -13.2496 C   0  0  0  0  0  0  0  0  0  0  0  0
   36.7782    4.4712  -16.8346 C   0  0  0  0  0  0  0  0  0  0  0  0
   37.0213    3.3329  -17.3729 O   0  0  0  0  0  0  0  0  0  0  0  0
   36.2880    5.5754  -17.5203 N   0  0  0  0  0  0  0  0  0  0  0  0
   35.9657    6.9047  -17.0133 C   0  0  0  0  0  0  0  0  0  0  0  0
   35.2923    7.5724  -18.2227 C   0  0  2  0  0  0  0  0  0  0  0  0
   33.8070    7.2390  -18.1950 C   0  0  0  0  0  0  0  0  0  0  0  0
   35.9038    6.8730  -19.4118 C   0  0  0  0  0  0  0  0  0  0  0  0
   36.0075    5.4493  -18.9279 C   0  0  1  0  0  0  0  0  0  0  0  0
   36.9479    4.6606  -19.7202 C   0  0  0  0  0  0  0  0  0  0  0  0
   37.9504    5.3196  -20.1976 O   0  0  0  0  0  0  0  0  0  0  0  0
   36.8559    3.2635  -20.0051 N   0  0  0  0  0  0  0  0  0  0  0  0
   37.9863    2.7771  -20.8656 C   0  0  1  0  0  0  0  0  0  0  0  0
   39.1076    2.6547  -19.8567 C   0  0  0  0  0  0  0  0  0  0  0  0
   40.4364    2.2519  -20.3136 C   0  0  0  0  0  0  0  0  0  0  0  0
   40.6041    0.9272  -20.9652 C   0  0  0  0  0  0  0  0  0  0  0  0
   41.4137    2.2670  -19.1132 C   0  0  0  0  0  0  0  0  0  0  0  0
   37.6296    1.5087  -21.4590 C   0  0  0  0  0  0  0  0  0  0  0  0
   37.7707    1.4553  -22.7568 O   0  0  0  0  0  0  0  0  0  0  0  0
   37.1696    0.3021  -20.8942 N   0  0  0  0  0  0  0  0  0  0  0  0
   37.1731   -0.0473  -19.4982 C   0  0  0  0  0  0  0  0  0  0  0  0
   36.6392   -0.7797  -21.8241 C   0  0  1  0  0  0  0  0  0  0  0  0
   37.4531   -2.0138  -21.8244 C   0  0  0  0  0  0  0  0  0  0  0  0
   38.9407   -1.7982  -22.1260 C   0  0  0  0  0  0  0  0  0  0  0  0
   37.0271   -2.6822  -23.1934 C   0  0  0  0  0  0  0  0  0  0  0  0
   35.3073   -0.9925  -21.2114 C   0  0  0  0  0  0  0  0  0  0  0  0
   34.8266    0.1198  -20.7204 O   0  0  0  0  0  0  0  0  0  0  0  0
   34.5024   -2.1358  -21.0645 N   0  0  0  0  0  0  0  0  0  0  0  0
   34.5364   -3.5516  -21.3679 C   0  0  0  0  0  0  0  0  0  0  0  0
   33.0677   -3.9848  -21.1448 C   0  0  0  0  0  0  0  0  0  0  0  0
   32.3235   -2.6510  -21.3127 C   0  0  0  0  0  0  0  0  0  0  0  0
   33.2010   -1.8552  -20.3313 C   0  0  1  0  0  0  0  0  0  0  0  0
   33.2370   -2.5778  -19.0576 C   0  0  0  0  0  0  0  0  0  0  0  0
   34.3092   -3.2338  -18.8004 O   0  0  0  0  0  0  0  0  0  0  0  0
   32.2349   -2.6443  -18.0631 N   0  0  0  0  0  0  0  0  0  0  0  0
   31.0049   -1.8839  -18.0887 C   0  0  0  0  0  0  0  0  0  0  0  0
   32.4564   -3.5193  -16.8596 C   0  0  2  0  0  0  0  0  0  0  0  0
   31.4062   -4.5973  -16.8757 C   0  0  0  0  0  0  0  0  0  0  0  0
   31.4117   -5.5987  -15.7916 C   0  0  0  0  0  0  0  0  0  0  0  0
   32.6867   -6.3915  -15.6482 C   0  0  0  0  0  0  0  0  0  0  0  0
   30.9410   -5.1631  -14.4454 C   0  0  0  0  0  0  0  0  0  0  0  0
   32.3167   -2.7028  -15.6531 C   0  0  0  0  0  0  0  0  0  0  0  0
   31.5294   -1.7215  -15.6906 O   0  0  0  0  0  0  0  0  0  0  0  0
   32.9959   -2.9045  -14.4213 N   0  0  0  0  0  0  0  0  0  0  0  0
   32.6526   -1.9098  -13.3652 C   0  0  0  0  0  0  0  0  0  0  0  0
   32.9634   -0.5515  -13.9110 C   0  0  0  0  0  0  0  0  0  0  0  0
   31.8779    0.2623  -14.1328 O   0  0  0  0  0  0  0  0  0  0  0  0
   33.9458    0.1919  -13.2951 O   0  0  0  0  0  0  0  0  0  0  0  0
   34.3269    0.5870  -14.5424 C   0  0  0  0  0  0  0  0  0  0  0  0
   33.4616    1.5633  -15.3156 C   0  0  0  0  0  0  0  0  0  0  0  0
   33.9048   -0.6905  -14.9639 O   0  0  0  0  0  0  0  0  0  0  0  0
   38.1541    0.9102   -7.6109 C   0  0  0  0  0  0  0  0  0  0  0  0
   37.6251   -0.4946   -7.6825 C   0  0  0  0  0  0  0  0  0  0  0  0
   36.9724    1.8360   -7.4077 C   0  0  0  0  0  0  0  0  0  0  0  0
  1  2  1  0
  2  3  2  0
  2  4  1  0
  4  5  1  0
  4  6  1  0
  6  7  1  0
  7  8  2  0
  7  9  1  0
  9 10  1  0
 10 11  1  0
 11 12  1  6
 11 13  1  0
 13 14  1  0
 14 15  1  1
 15 16  2  0
 15 17  1  0
 17 18  1  0
 19 17  1  1
 19 20  1  0
 20 21  2  0
 20 22  1  0
 22 23  1  0
 23 24  1  6
 24 25  1  0
 25 26  1  0
 25 27  1  0
 23 28  1  0
 28 29  2  0
 28 30  1  0
 30 31  1  0
 31 32  1  0
 32 33  1  1
 32 34  1  0
 35 34  1  6
 35 36  1  0
 36 37  2  0
 36 38  1  0
 38 39  1  0
 39 40  1  1
 40 41  1  0
 41 42  1  0
 41 43  1  0
 39 44  1  0
 44 45  2  0
 44 46  1  0
 46 47  1  0
 46 48  1  0
 48 49  1  1
 49 50  1  0
 49 51  1  0
 48 52  1  0
 52 53  2  0
 52 54  1  0
 54 55  1  0
 55 56  1  0
 56 57  1  0
 58 57  1  6
 58 59  1  0
 59 60  2  0
 59 61  1  0
 61 62  1  0
 61 63  1  0
 63 64  1  1
 64 65  1  0
 65 66  1  0
 65 67  1  0
 63 68  1  0
 68 69  2  0
 68 70  1  0
 70 71  1  0
 71 72  1  0
 72 73  1  0
 72 74  1  0
 74 75  1  0
 75 76  1  0
 75 77  1  0
  6 78  1  1
 78 79  1  0
 78 80  1  0
 14  9  1  0
 75 19  1  0
 35 30  1  0
 58 54  1  0
 77 72  1  0
M  END
>  <shape_align_shape_tanimoto>  (1) 
0.35849109508441018

>  <shape_align_color_tanimoto>  (1) 
0.020082086221930275

>  <metric>  (1) 
shape

>  <metric_score>  (1) 
0.358

>  <template_pid>  (1) 
5AH2

>  <template_shape_score>  (1) 
0.358

>  <template_color_score>  (1) 
0.020

>  <template_combo_score>  (1) 
0.189

$$$$
5AH2_color_pose
     RDKit          3D

 80 84  0  0  0  0  0  0  0  0999 V2000
   34.0939    7.0850  -20.0114 C   0  0  0  0  0  0  0  0  0  0  0  0
   34.6979    5.8803  -19.3736 C   0  0  0  0  0  0  0  0  0  0  0  0
   34.0452    4.8003  -19.4513 O   0  0  0  0  0  0  0  0  0  0  0  0
   35.9724    5.9513  -18.6976 N   0  0  0  0  0  0  0  0  0  0  0  0
   36.6331    7.2122  -18.6451 C   0  0  0  0  0  0  0  0  0  0  0  0
   36.4484    4.6805  -18.1541 C   0  0  2  0  0  0  0  0  0  0  0  0
   36.5482    4.7489  -16.7114 C   0  0  0  0  0  0  0  0  0  0  0  0
   36.6911    5.9010  -16.1625 O   0  0  0  0  0  0  0  0  0  0  0  0
   36.5069    3.6741  -15.7778 N   0  0  0  0  0  0  0  0  0  0  0  0
   36.6999    3.9191  -14.3457 C   0  0  0  0  0  0  0  0  0  0  0  0
   37.4494    2.7373  -13.8739 C   0  0  2  0  0  0  0  0  0  0  0  0
   38.9057    3.0464  -13.5615 C   0  0  0  0  0  0  0  0  0  0  0  0
   37.4544    1.7721  -15.0040 C   0  0  0  0  0  0  0  0  0  0  0  0
   36.2850    2.2816  -15.8767 C   0  0  1  0  0  0  0  0  0  0  0  0
   35.1248    1.7111  -15.1005 C   0  0  0  0  0  0  0  0  0  0  0  0
   34.8642    2.0135  -13.9247 O   0  0  0  0  0  0  0  0  0  0  0  0
   34.2366    0.7552  -15.7218 N   0  0  0  0  0  0  0  0  0  0  0  0
   34.4881    0.5343  -17.1668 C   0  0  0  0  0  0  0  0  0  0  0  0
   33.2465   -0.0079  -15.1012 C   0  0  2  0  0  0  0  0  0  0  0  0
   32.2709    0.5587  -14.2098 C   0  0  0  0  0  0  0  0  0  0  0  0
   31.1288    0.8975  -14.7310 O   0  0  0  0  0  0  0  0  0  0  0  0
   32.3619    0.8111  -12.8251 N   0  0  0  0  0  0  0  0  0  0  0  0
   31.2661    1.3851  -12.0342 C   0  0  1  0  0  0  0  0  0  0  0  0
   30.7023    0.3543  -11.0930 C   0  0  0  0  0  0  0  0  0  0  0  0
   30.1337   -0.8416  -11.8191 C   0  0  0  0  0  0  0  0  0  0  0  0
   29.0171   -0.4994  -12.7458 C   0  0  0  0  0  0  0  0  0  0  0  0
   29.6573   -1.9105  -10.8627 C   0  0  0  0  0  0  0  0  0  0  0  0
   31.8445    2.5465  -11.3278 C   0  0  0  0  0  0  0  0  0  0  0  0
   33.1186    2.6577  -11.4445 O   0  0  0  0  0  0  0  0  0  0  0  0
   31.1408    3.4975  -10.5711 N   0  0  0  0  0  0  0  0  0  0  0  0
   29.7116    3.6700  -10.2017 C   0  0  0  0  0  0  0  0  0  0  0  0
   29.8942    3.7973   -8.6943 C   0  0  2  0  0  0  0  0  0  0  0  0
   28.8949    4.8052   -8.1674 C   0  0  0  0  0  0  0  0  0  0  0  0
   31.3294    4.3085   -8.4743 C   0  0  0  0  0  0  0  0  0  0  0  0
   31.7290    4.6491   -9.8929 C   0  0  1  0  0  0  0  0  0  0  0  0
   33.0907    4.9952  -10.1445 C   0  0  0  0  0  0  0  0  0  0  0  0
   33.4931    5.0718  -11.3604 O   0  0  0  0  0  0  0  0  0  0  0  0
   34.0973    5.2859   -9.1330 N   0  0  0  0  0  0  0  0  0  0  0  0
   35.4209    5.5688   -9.5368 C   0  0  1  0  0  0  0  0  0  0  0  0
   35.5712    7.0371   -9.9657 C   0  0  0  0  0  0  0  0  0  0  0  0
   35.2293    8.0248   -8.9121 C   0  0  0  0  0  0  0  0  0  0  0  0
   35.3898    9.4675   -9.4358 C   0  0  0  0  0  0  0  0  0  0  0  0
   36.2712    7.9462   -7.7866 C   0  0  0  0  0  0  0  0  0  0  0  0
   36.5887    5.1268   -8.8443 C   0  0  0  0  0  0  0  0  0  0  0  0
   37.7173    5.4239   -9.4551 O   0  0  0  0  0  0  0  0  0  0  0  0
   36.7852    4.4355   -7.6323 N   0  0  0  0  0  0  0  0  0  0  0  0
   35.7126    4.1128   -6.6909 C   0  0  0  0  0  0  0  0  0  0  0  0
   38.1266    4.0290   -7.1637 C   0  0  1  0  0  0  0  0  0  0  0  0
   38.5439    4.6884   -5.8968 C   0  0  0  0  0  0  0  0  0  0  0  0
   38.6202    6.2051   -5.9873 C   0  0  0  0  0  0  0  0  0  0  0  0
   39.8655    4.2344   -5.3555 C   0  0  0  0  0  0  0  0  0  0  0  0
   38.3969    2.5951   -7.2382 C   0  0  0  0  0  0  0  0  0  0  0  0
   39.4694    2.2076   -6.6213 O   0  0  0  0  0  0  0  0  0  0  0  0
   37.6765    1.5804   -7.8767 N   0  0  0  0  0  0  0  0  0  0  0  0
   36.4892    1.3892   -8.6892 C   0  0  0  0  0  0  0  0  0  0  0  0
   35.8238    0.2085   -7.9900 C   0  0  0  0  0  0  0  0  0  0  0  0
   36.9497   -0.5896   -7.3834 C   0  0  0  0  0  0  0  0  0  0  0  0
   38.1832    0.1658   -7.7752 C   0  0  1  0  0  0  0  0  0  0  0  0
   38.6487   -0.2769   -9.0974 C   0  0  0  0  0  0  0  0  0  0  0  0
   38.8083    0.6424   -9.9747 O   0  0  0  0  0  0  0  0  0  0  0  0
   38.9439   -1.5895   -9.5179 N   0  0  0  0  0  0  0  0  0  0  0  0
   38.9296   -2.7543   -8.6417 C   0  0  0  0  0  0  0  0  0  0  0  0
   39.3103   -1.8183  -10.8974 C   0  0  2  0  0  0  0  0  0  0  0  0
   40.5274   -1.0504  -11.2570 C   0  0  0  0  0  0  0  0  0  0  0  0
   41.7859   -1.2908  -10.5335 C   0  0  0  0  0  0  0  0  0  0  0  0
   42.3560   -2.6762  -10.5751 C   0  0  0  0  0  0  0  0  0  0  0  0
   41.8704   -0.7723   -9.1199 C   0  0  0  0  0  0  0  0  0  0  0  0
   38.1832   -1.4233  -11.8210 C   0  0  0  0  0  0  0  0  0  0  0  0
   38.3516   -1.2810  -13.0588 O   0  0  0  0  0  0  0  0  0  0  0  0
   36.9064   -1.2116  -11.2198 N   0  0  0  0  0  0  0  0  0  0  0  0
   35.7282   -0.7973  -11.9283 C   0  0  0  0  0  0  0  0  0  0  0  0
   35.2161   -1.6350  -13.0177 C   0  0  0  0  0  0  0  0  0  0  0  0
   35.5146   -2.9674  -12.9330 O   0  0  0  0  0  0  0  0  0  0  0  0
   33.8233   -1.3401  -13.1164 O   0  0  0  0  0  0  0  0  0  0  0  0
   33.9440   -1.2210  -14.4707 C   0  0  0  0  0  0  0  0  0  0  0  0
   33.5416   -2.5620  -15.0849 C   0  0  0  0  0  0  0  0  0  0  0  0
   35.2937   -1.0569  -14.2865 O   0  0  0  0  0  0  0  0  0  0  0  0
   37.6979    4.3165  -18.9087 C   0  0  0  0  0  0  0  0  0  0  0  0
   38.8424    5.2556  -18.8031 C   0  0  0  0  0  0  0  0  0  0  0  0
   38.0623    2.8684  -18.7632 C   0  0  0  0  0  0  0  0  0  0  0  0
  1  2  1  0
  2  3  2  0
  2  4  1  0
  4  5  1  0
  4  6  1  0
  6  7  1  0
  7  8  2  0
  7  9  1  0
  9 10  1  0
 10 11  1  0
 11 12  1  6
 11 13  1  0
 13 14  1  0
 14 15  1  1
 15 16  2  0
 15 17  1  0
 17 18  1  0
 19 17  1  1
 19 20  1  0
 20 21  2  0
 20 22  1  0
 22 23  1  0
 23 24  1  1
 24 25  1  0
 25 26  1  0
 25 27  1  0
 23 28  1  0
 28 29  2  0
 28 30  1  0
 30 31  1  0
 31 32  1  0
 32 33  1  6
 32 34  1  0
 35 34  1  1
 35 36  1  0
 36 37  2  0
 36 38  1  0
 38 39  1  0
 39 40  1  1
 40 41  1  0
 41 42  1  0
 41 43  1  0
 39 44  1  0
 44 45  2  0
 44 46  1  0
 46 47  1  0
 46 48  1  0
 48 49  1  1
 49 50  1  0
 49 51  1  0
 48 52  1  0
 52 53  2  0
 52 54  1  0
 54 55  1  0
 55 56  1  0
 56 57  1  0
 58 57  1  6
 58 59  1  0
 59 60  2  0
 59 61  1  0
 61 62  1  0
 61 63  1  0
 63 64  1  6
 64 65  1  0
 65 66  1  0
 65 67  1  0
 63 68  1  0
 68 69  2  0
 68 70  1  0
 70 71  1  0
 71 72  1  0
 72 73  1  0
 72 74  1  0
 74 75  1  0
 75 76  1  0
 75 77  1  0
  6 78  1  6
 78 79  1  0
 78 80  1  0
 14  9  1  0
 75 19  1  0
 35 30  1  0
 58 54  1  0
 77 72  1  0
M  END
>  <shape_align_shape_tanimoto>  (2) 
0.30526847481854558

>  <shape_align_color_tanimoto>  (2) 
0.073955484815986225

>  <metric>  (2) 
color

>  <metric_score>  (2) 
0.074

>  <template_pid>  (2) 
5AH2

>  <template_shape_score>  (2) 
0.305

>  <template_color_score>  (2) 
0.074

>  <template_combo_score>  (2) 
0.190

$$$$
5AH2_combo_pose
     RDKit          3D

 80 84  0  0  0  0  0  0  0  0999 V2000
   40.4000   -5.4229   -9.2668 C   0  0  0  0  0  0  0  0  0  0  0  0
   39.9884   -5.0117  -10.6406 C   0  0  0  0  0  0  0  0  0  0  0  0
   38.8481   -5.3305  -11.0778 O   0  0  0  0  0  0  0  0  0  0  0  0
   40.8916   -4.2448  -11.4852 N   0  0  0  0  0  0  0  0  0  0  0  0
   42.1957   -3.8992  -10.8939 C   0  0  0  0  0  0  0  0  0  0  0  0
   40.5117   -3.8762  -12.8131 C   0  0  2  0  0  0  0  0  0  0  0  0
   39.3864   -2.9770  -13.0063 C   0  0  0  0  0  0  0  0  0  0  0  0
   38.7968   -3.1088  -14.1549 O   0  0  0  0  0  0  0  0  0  0  0  0
   38.8417   -1.9933  -12.1581 N   0  0  0  0  0  0  0  0  0  0  0  0
   39.1862   -1.5759  -10.8158 C   0  0  0  0  0  0  0  0  0  0  0  0
   37.8558   -1.4171  -10.1126 C   0  0  2  0  0  0  0  0  0  0  0  0
   37.6795   -2.5075   -9.0877 C   0  0  0  0  0  0  0  0  0  0  0  0
   36.8361   -1.5405  -11.2311 C   0  0  0  0  0  0  0  0  0  0  0  0
   37.6818   -1.1629  -12.4993 C   0  0  1  0  0  0  0  0  0  0  0  0
   37.8698    0.2837  -12.4587 C   0  0  0  0  0  0  0  0  0  0  0  0
   38.8251    0.8700  -11.8446 O   0  0  0  0  0  0  0  0  0  0  0  0
   36.9866    1.2231  -13.0920 N   0  0  0  0  0  0  0  0  0  0  0  0
   37.1705    2.6111  -12.6019 C   0  0  0  0  0  0  0  0  0  0  0  0
   36.1364    1.0531  -14.2034 C   0  0  2  0  0  0  0  0  0  0  0  0
   35.9572    2.1674  -15.1266 C   0  0  0  0  0  0  0  0  0  0  0  0
   34.8092    2.2231  -15.7190 O   0  0  0  0  0  0  0  0  0  0  0  0
   36.8538    3.2135  -15.4943 N   0  0  0  0  0  0  0  0  0  0  0  0
   36.3112    4.3111  -16.2421 C   0  0  1  0  0  0  0  0  0  0  0  0
   36.7387    5.6596  -15.7257 C   0  0  0  0  0  0  0  0  0  0  0  0
   38.1733    6.0168  -15.7282 C   0  0  0  0  0  0  0  0  0  0  0  0
   38.3054    7.4841  -15.1964 C   0  0  0  0  0  0  0  0  0  0  0  0
   39.0208    5.2070  -14.7875 C   0  0  0  0  0  0  0  0  0  0  0  0
   36.5212    4.2486  -17.7329 C   0  0  0  0  0  0  0  0  0  0  0  0
   37.3753    3.5252  -18.2778 O   0  0  0  0  0  0  0  0  0  0  0  0
   35.6977    5.0390  -18.5794 N   0  0  0  0  0  0  0  0  0  0  0  0
   34.4344    5.7445  -18.1507 C   0  0  0  0  0  0  0  0  0  0  0  0
   34.7105    7.0928  -18.7470 C   0  0  2  0  0  0  0  0  0  0  0  0
   33.4175    7.7858  -19.1531 C   0  0  0  0  0  0  0  0  0  0  0  0
   35.5900    6.8489  -19.9346 C   0  0  0  0  0  0  0  0  0  0  0  0
   35.7354    5.2837  -19.9425 C   0  0  1  0  0  0  0  0  0  0  0  0
   36.7525    4.9883  -20.9111 C   0  0  0  0  0  0  0  0  0  0  0  0
   36.2804    4.7536  -22.1271 O   0  0  0  0  0  0  0  0  0  0  0  0
   38.1318    4.8969  -20.8372 N   0  0  0  0  0  0  0  0  0  0  0  0
   38.9521    4.6938  -22.1185 C   0  0  1  0  0  0  0  0  0  0  0  0
   40.1185    5.5612  -22.0203 C   0  0  0  0  0  0  0  0  0  0  0  0
   41.1769    5.7351  -23.0030 C   0  0  0  0  0  0  0  0  0  0  0  0
   40.7304    6.2551  -24.3494 C   0  0  0  0  0  0  0  0  0  0  0  0
   42.1967    4.6879  -23.1794 C   0  0  0  0  0  0  0  0  0  0  0  0
   39.1065    3.2393  -22.1819 C   0  0  0  0  0  0  0  0  0  0  0  0
   38.9442    2.6216  -21.0608 O   0  0  0  0  0  0  0  0  0  0  0  0
   39.3884    2.4285  -23.2902 N   0  0  0  0  0  0  0  0  0  0  0  0
   39.4304    2.9550  -24.6642 C   0  0  0  0  0  0  0  0  0  0  0  0
   39.5940    0.9707  -23.1498 C   0  0  1  0  0  0  0  0  0  0  0  0
   40.8532    0.5383  -22.5151 C   0  0  0  0  0  0  0  0  0  0  0  0
   42.1247    0.9671  -23.2358 C   0  0  0  0  0  0  0  0  0  0  0  0
   41.0457    0.7024  -21.0627 C   0  0  0  0  0  0  0  0  0  0  0  0
   38.3668    0.3062  -22.7027 C   0  0  0  0  0  0  0  0  0  0  0  0
   37.3401    1.0796  -22.5881 O   0  0  0  0  0  0  0  0  0  0  0  0
   38.2257   -1.0669  -22.4007 N   0  0  0  0  0  0  0  0  0  0  0  0
   39.0162   -2.2682  -22.4393 C   0  0  0  0  0  0  0  0  0  0  0  0
   38.0944   -3.4463  -22.2597 C   0  0  0  0  0  0  0  0  0  0  0  0
   36.7426   -2.8432  -22.3206 C   0  0  0  0  0  0  0  0  0  0  0  0
   36.8751   -1.4794  -21.8675 C   0  0  1  0  0  0  0  0  0  0  0  0
   36.8137   -1.0808  -20.4737 C   0  0  0  0  0  0  0  0  0  0  0  0
   36.6642    0.2158  -20.3151 O   0  0  0  0  0  0  0  0  0  0  0  0
   36.8793   -1.7951  -19.2846 N   0  0  0  0  0  0  0  0  0  0  0  0
   36.8725   -3.2111  -19.0604 C   0  0  0  0  0  0  0  0  0  0  0  0
   36.9702   -0.9862  -18.0073 C   0  0  2  0  0  0  0  0  0  0  0  0
   38.3489   -1.2763  -17.5591 C   0  0  0  0  0  0  0  0  0  0  0  0
   38.9019   -0.6427  -16.3582 C   0  0  0  0  0  0  0  0  0  0  0  0
   40.3362   -1.1726  -16.1878 C   0  0  0  0  0  0  0  0  0  0  0  0
   39.1089    0.8558  -16.4974 C   0  0  0  0  0  0  0  0  0  0  0  0
   35.8371   -1.2199  -17.1551 C   0  0  0  0  0  0  0  0  0  0  0  0
   34.7464   -0.5889  -17.4562 O   0  0  0  0  0  0  0  0  0  0  0  0
   35.7269   -2.0472  -16.0192 N   0  0  0  0  0  0  0  0  0  0  0  0
   34.5318   -2.2065  -15.2247 C   0  0  0  0  0  0  0  0  0  0  0  0
   33.9596   -1.0426  -14.5446 C   0  0  0  0  0  0  0  0  0  0  0  0
   32.6088   -1.2934  -14.2345 O   0  0  0  0  0  0  0  0  0  0  0  0
   34.1416    0.2092  -15.0150 O   0  0  0  0  0  0  0  0  0  0  0  0
   34.6732    0.6286  -13.7560 C   0  0  0  0  0  0  0  0  0  0  0  0
   33.9304    1.6958  -13.0646 C   0  0  0  0  0  0  0  0  0  0  0  0
   34.6087   -0.6660  -13.3754 O   0  0  0  0  0  0  0  0  0  0  0  0
   40.4261   -5.1594  -13.6176 C   0  0  0  0  0  0  0  0  0  0  0  0
   40.0312   -4.9821  -15.0411 C   0  0  0  0  0  0  0  0  0  0  0  0
   41.8567   -5.7191  -13.6280 C   0  0  0  0  0  0  0  0  0  0  0  0
  1  2  1  0
  2  3  2  0
  2  4  1  0
  4  5  1  0
  4  6  1  0
  6  7  1  0
  7  8  2  0
  7  9  1  0
  9 10  1  0
 10 11  1  0
 11 12  1  1
 11 13  1  0
 13 14  1  0
 14 15  1  1
 15 16  2  0
 15 17  1  0
 17 18  1  0
 19 17  1  1
 19 20  1  0
 20 21  2  0
 20 22  1  0
 22 23  1  0
 23 24  1  1
 24 25  1  0
 25 26  1  0
 25 27  1  0
 23 28  1  0
 28 29  2  0
 28 30  1  0
 30 31  1  0
 31 32  1  0
 32 33  1  6
 32 34  1  0
 35 34  1  1
 35 36  1  0
 36 37  2  0
 36 38  1  0
 38 39  1  0
 39 40  1  1
 40 41  1  0
 41 42  1  0
 41 43  1  0
 39 44  1  0
 44 45  2  0
 44 46  1  0
 46 47  1  0
 46 48  1  0
 48 49  1  1
 49 50  1  0
 49 51  1  0
 48 52  1  0
 52 53  2  0
 52 54  1  0
 54 55  1  0
 55 56  1  0
 56 57  1  0
 58 57  1  1
 58 59  1  0
 59 60  2  0
 59 61  1  0
 61 62  1  0
 61 63  1  0
 63 64  1  1
 64 65  1  0
 65 66  1  0
 65 67  1  0
 63 68  1  0
 68 69  2  0
 68 70  1  0
 70 71  1  0
 71 72  1  0
 72 73  1  0
 72 74  1  0
 74 75  1  0
 75 76  1  0
 75 77  1  0
  6 78  1  6
 78 79  1  0
 78 80  1  0
 14  9  1  0
 75 19  1  0
 35 30  1  0
 58 54  1  0
 77 72  1  0
M  END
>  <shape_align_shape_tanimoto>  (3) 
0.35423666997973668

>  <shape_align_color_tanimoto>  (3) 
0.062008382406394447

>  <metric>  (3) 
combo

>  <metric_score>  (3) 
0.208

>  <template_pid>  (3) 
5AH2

>  <template_shape_score>  (3) 
0.354

>  <template_color_score>  (3) 
0.062

>  <template_combo_score>  (3) 
0.208

$$$$
