4RIS_shape_pose
     RDKit          3D

123125  0  0  0  0  0  0  0  0999 V2000
   -9.8783   40.2072   25.2181 C   0  0  0  0  0  0  0  0  0  0  0  0
   -9.9395   39.2819   23.9524 C   0  0  0  0  0  0  0  0  0  0  0  0
  -11.0690   39.8425   23.0957 C   0  0  0  0  0  0  0  0  0  0  0  0
   -8.6141   39.4849   23.3122 C   0  0  0  0  0  0  0  0  0  0  0  0
   -8.1479   38.7605   22.1418 C   0  0  2  0  0  0  0  0  0  0  0  0
   -6.7747   39.2920   21.8005 N   0  0  0  0  0  0  0  0  0  0  0  0
   -5.6116   38.5798   22.0903 C   0  0  0  0  0  0  0  0  0  0  0  0
   -5.7496   37.4254   22.6444 O   0  0  0  0  0  0  0  0  0  0  0  0
   -4.2178   38.9806   21.8450 C   0  0  2  0  0  0  0  0  0  0  0  0
   -3.4360   38.8871   23.1919 C   0  0  0  0  0  0  0  0  0  0  0  0
   -3.9774   40.2795   21.3156 N   0  0  0  0  0  0  0  0  0  0  0  0
   -3.0532   40.4417   20.2429 C   0  0  0  0  0  0  0  0  0  0  0  0
   -2.5145   39.3448   19.8416 O   0  0  0  0  0  0  0  0  0  0  0  0
   -2.6583   41.6530   19.5734 C   0  0  2  0  0  0  0  0  0  0  0  0
   -1.1491   41.8138   19.3201 C   0  0  0  0  0  0  0  0  0  0  0  0
   -1.0793   43.1693   18.6460 C   0  0  0  0  0  0  0  0  0  0  0  0
   -1.2321   43.4513   17.3004 C   0  0  0  0  0  0  0  0  0  0  0  0
   -1.1358   44.8027   17.1830 N   0  0  0  0  0  0  0  0  0  0  0  0
   -0.9287   45.3696   18.3791 C   0  0  0  0  0  0  0  0  0  0  0  0
   -0.9001   44.3513   19.2455 N   0  0  0  0  0  0  0  0  0  0  0  0
   -3.1128   42.9248   20.0169 N   0  0  0  0  0  0  0  0  0  0  0  0
   -4.0970   43.6066   19.3257 C   0  0  0  0  0  0  0  0  0  0  0  0
   -4.5859   43.0190   18.2870 O   0  0  0  0  0  0  0  0  0  0  0  0
   -4.7054   44.9382   19.5749 C   0  0  1  0  0  0  0  0  0  0  0  0
   -5.7231   45.0010   18.5400 N   0  0  0  0  0  0  0  0  0  0  0  0
   -5.8936   45.9730   17.5205 C   0  0  0  0  0  0  0  0  0  0  0  0
   -5.0705   46.8968   17.4934 O   0  0  0  0  0  0  0  0  0  0  0  0
   -7.0457   45.7309   16.6251 C   0  0  2  0  0  0  0  0  0  0  0  0
   -7.9276   46.8067   16.1911 C   0  0  0  0  0  0  0  0  0  0  0  0
   -7.5837   47.9408   15.3485 C   0  0  0  0  0  0  0  0  0  0  0  0
   -6.5252   48.8564   15.7808 C   0  0  0  0  0  0  0  0  0  0  0  0
   -6.4606   50.0325   14.7511 C   0  0  0  0  0  0  0  0  0  0  0  0
   -6.1630   49.4069   13.4786 N   0  0  0  0  0  0  0  0  0  0  0  0
   -7.9230   44.6622   17.1546 N   0  0  0  0  0  0  0  0  0  0  0  0
   -7.8283   43.3126   16.7511 C   0  0  0  0  0  0  0  0  0  0  0  0
   -6.9338   43.0341   15.9071 O   0  0  0  0  0  0  0  0  0  0  0  0
   -8.6849   42.2208   17.2313 C   0  0  2  0  0  0  0  0  0  0  0  0
   -8.5211   41.8547   18.6376 C   0  0  0  0  0  0  0  0  0  0  0  0
   -8.7969   42.8897   19.6590 C   0  0  0  0  0  0  0  0  0  0  0  0
  -10.1467   43.5063   19.6737 C   0  0  0  0  0  0  0  0  0  0  0  0
  -10.4731   44.1436   20.9529 N   0  0  0  0  0  0  0  0  0  0  0  0
  -10.9715   43.5370   18.7664 O   0  0  0  0  0  0  0  0  0  0  0  0
   -8.4147   41.0978   16.3204 N   0  0  0  0  0  0  0  0  0  0  0  0
   -7.3842   40.1558   16.4033 C   0  0  0  0  0  0  0  0  0  0  0  0
   -6.5030   40.1828   17.3446 O   0  0  0  0  0  0  0  0  0  0  0  0
   -7.2415   39.0946   15.4227 C   0  0  2  0  0  0  0  0  0  0  0  0
   -8.2852   37.9759   15.7459 C   0  0  0  0  0  0  0  0  0  0  0  0
   -8.1896   36.9499   14.6435 C   0  0  0  0  0  0  0  0  0  0  0  0
   -9.0253   35.7373   14.9829 C   0  0  0  0  0  0  0  0  0  0  0  0
   -8.9005   34.6873   13.8901 C   0  0  0  0  0  0  0  0  0  0  0  0
   -9.6410   33.5217   14.2853 N   0  0  0  0  0  0  0  0  0  0  0  0
   -5.9185   38.4614   15.5080 N   0  0  0  0  0  0  0  0  0  0  0  0
   -5.5619   37.2040   15.9469 C   0  0  0  0  0  0  0  0  0  0  0  0
   -6.2719   36.3012   16.4353 O   0  0  0  0  0  0  0  0  0  0  0  0
   -4.0943   36.7901   15.8251 C   0  0  2  0  0  0  0  0  0  0  0  0
   -3.6167   35.9693   16.9293 C   0  0  0  0  0  0  0  0  0  0  0  0
   -4.2738   34.6460   17.1803 C   0  0  0  0  0  0  0  0  0  0  0  0
   -4.1749   33.7092   15.9946 C   0  0  0  0  0  0  0  0  0  0  0  0
   -4.8392   32.3877   16.2681 C   0  0  0  0  0  0  0  0  0  0  0  0
   -4.7635   31.4813   15.1269 N   0  0  0  0  0  0  0  0  0  0  0  0
   -3.2600   37.9308   15.5327 N   0  0  0  0  0  0  0  0  0  0  0  0
   -3.0116   38.4346   14.2306 C   0  0  0  0  0  0  0  0  0  0  0  0
   -3.4958   37.9518   13.1813 O   0  0  0  0  0  0  0  0  0  0  0  0
   -2.1413   39.6230   14.1029 C   0  0  2  0  0  0  0  0  0  0  0  0
   -1.4938   40.0581   15.3771 C   0  0  0  0  0  0  0  0  0  0  0  0
   -0.5988   38.9629   15.8899 C   0  0  0  0  0  0  0  0  0  0  0  0
   -0.4751   37.9255   15.1825 O   0  0  0  0  0  0  0  0  0  0  0  0
    0.0844   39.0308   17.0786 O   0  0  0  0  0  0  0  0  0  0  0  0
   -2.7485   40.6422   13.2909 N   0  0  0  0  0  0  0  0  0  0  0  0
   -2.0804   41.6801   12.6030 C   0  0  0  0  0  0  0  0  0  0  0  0
   -0.8726   41.8163   12.6268 O   0  0  0  0  0  0  0  0  0  0  0  0
   -3.0168   42.6278   11.8248 C   0  0  1  0  0  0  0  0  0  0  0  0
   -3.5513   41.8177   10.7317 N   0  0  0  0  0  0  0  0  0  0  0  0
   -4.0205   43.0781   12.8205 C   0  0  0  0  0  0  0  0  0  0  0  0
   -5.0749   44.0735   12.4044 C   0  0  0  0  0  0  0  0  0  0  0  0
   -5.9244   43.6613   11.2632 C   0  0  0  0  0  0  0  0  0  0  0  0
   -6.9937   44.5627   10.9226 N   0  0  0  0  0  0  0  0  0  0  0  0
   -6.9277   45.8798   10.4940 C   0  0  0  0  0  0  0  0  0  0  0  0
   -8.1563   46.5779   10.2179 N   0  0  0  0  0  0  0  0  0  0  0  0
   -5.8338   46.4940   10.3326 N   0  0  0  0  0  0  0  0  0  0  0  0
   -5.2382   45.0855   20.9241 C   0  0  0  0  0  0  0  0  0  0  0  0
   -4.1951   44.9619   22.0009 C   0  0  0  0  0  0  0  0  0  0  0  0
   -5.7619   46.5315   21.0559 C   0  0  0  0  0  0  0  0  0  0  0  0
   -8.8716   38.4649   20.9539 C   0  0  0  0  0  0  0  0  0  0  0  0
   -8.2525   38.7751   19.8256 O   0  0  0  0  0  0  0  0  0  0  0  0
  -10.1282   37.8982   20.7214 N   0  0  0  0  0  0  0  0  0  0  0  0
  -10.7544   37.6496   19.4413 C   0  0  1  0  0  0  0  0  0  0  0  0
  -11.4078   36.3023   19.5435 C   0  0  0  0  0  0  0  0  0  0  0  0
  -12.1683   35.8696   18.3564 C   0  0  0  0  0  0  0  0  0  0  0  0
  -11.6679   35.1483   17.3066 C   0  0  0  0  0  0  0  0  0  0  0  0
  -12.4863   34.7841   16.2120 C   0  0  0  0  0  0  0  0  0  0  0  0
  -13.7806   35.1981   16.2932 C   0  0  0  0  0  0  0  0  0  0  0  0
  -14.3534   35.9159   17.2962 C   0  0  0  0  0  0  0  0  0  0  0  0
  -13.5320   36.2630   18.3579 C   0  0  0  0  0  0  0  0  0  0  0  0
  -11.7507   38.6909   19.0446 C   0  0  0  0  0  0  0  0  0  0  0  0
  -12.2173   39.4954   19.8961 O   0  0  0  0  0  0  0  0  0  0  0  0
  -12.1377   38.7327   17.6574 N   0  0  0  0  0  0  0  0  0  0  0  0
  -13.0962   39.7224   17.1720 C   0  0  1  0  0  0  0  0  0  0  0  0
  -12.2907   41.0849   17.2270 C   0  0  0  0  0  0  0  0  0  0  0  0
  -13.1232   42.1638   16.7443 C   0  0  0  0  0  0  0  0  0  0  0  0
  -13.1538   42.5524   15.4477 C   0  0  0  0  0  0  0  0  0  0  0  0
  -13.8665   43.5548   14.8679 C   0  0  0  0  0  0  0  0  0  0  0  0
  -14.6736   44.2906   15.6951 C   0  0  0  0  0  0  0  0  0  0  0  0
  -15.4677   45.3563   15.2401 O   0  0  0  0  0  0  0  0  0  0  0  0
  -14.7155   43.9735   17.0526 C   0  0  0  0  0  0  0  0  0  0  0  0
  -13.9755   42.9447   17.6053 C   0  0  0  0  0  0  0  0  0  0  0  0
  -13.5052   39.5211   15.7926 C   0  0  0  0  0  0  0  0  0  0  0  0
  -14.4323   40.2182   15.3184 O   0  0  0  0  0  0  0  0  0  0  0  0
  -12.9274   38.5804   14.8781 N   0  0  0  0  0  0  0  0  0  0  0  0
  -13.3712   38.5218   13.5092 C   0  0  1  0  0  0  0  0  0  0  0  0
  -12.2660   38.3934   12.5272 C   0  0  0  0  0  0  0  0  0  0  0  0
  -11.2948   39.5601   12.6016 C   0  0  0  0  0  0  0  0  0  0  0  0
  -10.1982   39.4008   11.6108 C   0  0  0  0  0  0  0  0  0  0  0  0
  -10.6631   39.3776   10.1888 C   0  0  0  0  0  0  0  0  0  0  0  0
   -9.4921   39.2266    9.3200 N   0  0  0  0  0  0  0  0  0  0  0  0
  -14.5664   37.6883   13.2755 C   0  0  0  0  0  0  0  0  0  0  0  0
  -15.2391   37.2252   14.2472 O   0  0  0  0  0  0  0  0  0  0  0  0
  -14.9601   37.4085   11.9483 N   0  0  0  0  0  0  0  0  0  0  0  0
  -16.0987   36.6292   11.5513 C   0  0  1  0  0  0  0  0  0  0  0  0
  -15.8513   35.1725   11.5262 C   0  0  0  0  0  0  0  0  0  0  0  0
  -17.3055   37.0032   12.3749 C   0  0  0  0  0  0  0  0  0  0  0  0
  -17.8627   38.1310   12.2495 O   0  0  0  0  0  0  0  0  0  0  0  0
  -17.8448   36.1235   13.3122 O   0  0  0  0  0  0  0  0  0  0  0  0
  1  2  1  0
  2  3  1  0
  2  4  1  0
  5  4  1  6
  5  6  1  0
  6  7  1  0
  7  8  2  0
  7  9  1  0
  9 10  1  1
  9 11  1  0
 11 12  1  0
 12 13  2  0
 12 14  1  0
 14 15  1  1
 15 16  1  0
 16 17  2  0
 17 18  1  0
 18 19  1  0
 19 20  2  0
 14 21  1  0
 21 22  1  0
 22 23  2  0
 22 24  1  0
 24 25  1  6
 25 26  1  0
 26 27  2  0
 26 28  1  0
 28 29  1  1
 29 30  1  0
 30 31  1  0
 31 32  1  0
 32 33  1  0
 28 34  1  0
 34 35  1  0
 35 36  2  0
 35 37  1  0
 37 38  1  1
 38 39  1  0
 39 40  1  0
 40 41  1  0
 40 42  2  0
 37 43  1  0
 43 44  1  0
 44 45  2  0
 44 46  1  0
 46 47  1  1
 47 48  1  0
 48 49  1  0
 49 50  1  0
 50 51  1  0
 46 52  1  0
 52 53  1  0
 53 54  2  0
 53 55  1  0
 55 56  1  1
 56 57  1  0
 57 58  1  0
 58 59  1  0
 59 60  1  0
 55 61  1  0
 61 62  1  0
 62 63  2  0
 62 64  1  0
 64 65  1  1
 65 66  1  0
 66 67  2  0
 66 68  1  0
 64 69  1  0
 69 70  1  0
 70 71  2  0
 70 72  1  0
 72 73  1  6
 72 74  1  0
 74 75  1  0
 75 76  1  0
 76 77  1  0
 77 78  1  0
 78 79  1  0
 78 80  2  0
 24 81  1  0
 81 82  1  0
 81 83  1  0
  5 84  1  0
 84 85  2  0
 84 86  1  0
 86 87  1  0
 87 88  1  1
 88 89  1  0
 89 90  2  0
 90 91  1  0
 91 92  2  0
 92 93  1  0
 93 94  2  0
 87 95  1  0
 95 96  2  0
 95 97  1  0
 97 98  1  0
 98 99  1  6
 99100  1  0
100101  2  0
101102  1  0
102103  2  0
103104  1  0
103105  1  0
105106  2  0
 98107  1  0
107108  2  0
107109  1  0
109110  1  0
110111  1  6
111112  1  0
112113  1  0
113114  1  0
114115  1  0
110116  1  0
116117  2  0
116118  1  0
118119  1  0
119120  1  1
119121  1  0
121122  2  0
121123  1  0
 20 16  1  0
 94 89  1  0
106100  1  0
M  CHG  8  33   1  51   1  60   1  68  -1  73   1  80   1 115   1 123  -1
M  END
>  <shape_align_shape_tanimoto>  (1) 
0.21530621121586382

>  <shape_align_color_tanimoto>  (1) 
0.0012902296594911274

>  <metric>  (1) 
shape

>  <metric_score>  (1) 
0.215

>  <template_pid>  (1) 
4RIS

>  <template_shape_score>  (1) 
0.215

>  <template_color_score>  (1) 
0.001

>  <template_combo_score>  (1) 
0.108

$$$$
4RIS_color_pose
     RDKit          3D

123125  0  0  0  0  0  0  0  0999 V2000
   -7.8353   33.3939   15.3990 C   0  0  0  0  0  0  0  0  0  0  0  0
   -9.0153   34.4209   15.3942 C   0  0  0  0  0  0  0  0  0  0  0  0
  -10.1414   33.6065   16.0423 C   0  0  0  0  0  0  0  0  0  0  0  0
   -9.2586   34.7191   13.9781 C   0  0  0  0  0  0  0  0  0  0  0  0
  -10.3498   35.7729   13.6571 C   0  0  2  0  0  0  0  0  0  0  0  0
  -11.6081   35.3206   14.2286 N   0  0  0  0  0  0  0  0  0  0  0  0
  -11.9926   35.9197   15.4494 C   0  0  0  0  0  0  0  0  0  0  0  0
  -11.1551   36.7645   15.9360 O   0  0  0  0  0  0  0  0  0  0  0  0
  -13.2102   35.7014   16.2208 C   0  0  2  0  0  0  0  0  0  0  0  0
  -14.3559   36.5280   15.4970 C   0  0  0  0  0  0  0  0  0  0  0  0
  -13.1282   36.2147   17.5526 N   0  0  0  0  0  0  0  0  0  0  0  0
  -14.1817   36.6893   18.3786 C   0  0  0  0  0  0  0  0  0  0  0  0
  -15.3557   36.7198   17.9520 O   0  0  0  0  0  0  0  0  0  0  0  0
  -13.7697   37.1359   19.7357 C   0  0  2  0  0  0  0  0  0  0  0  0
  -13.9213   35.8810   20.6388 C   0  0  0  0  0  0  0  0  0  0  0  0
  -13.0412   34.8047   20.1273 C   0  0  0  0  0  0  0  0  0  0  0  0
  -11.7399   34.5063   20.4565 C   0  0  0  0  0  0  0  0  0  0  0  0
  -11.3366   33.4180   19.7449 N   0  0  0  0  0  0  0  0  0  0  0  0
  -12.3644   33.0380   18.9809 C   0  0  0  0  0  0  0  0  0  0  0  0
  -13.4057   33.8671   19.1992 N   0  0  0  0  0  0  0  0  0  0  0  0
  -14.5705   38.1491   20.3604 N   0  0  0  0  0  0  0  0  0  0  0  0
  -13.8423   39.1771   21.0134 C   0  0  0  0  0  0  0  0  0  0  0  0
  -12.5698   39.0458   20.9652 O   0  0  0  0  0  0  0  0  0  0  0  0
  -14.2970   40.3686   21.7271 C   0  0  1  0  0  0  0  0  0  0  0  0
  -13.1514   41.3216   21.7961 N   0  0  0  0  0  0  0  0  0  0  0  0
  -12.3261   41.4704   22.9271 C   0  0  0  0  0  0  0  0  0  0  0  0
  -12.6175   40.7489   23.9234 O   0  0  0  0  0  0  0  0  0  0  0  0
  -11.1709   42.4312   22.9332 C   0  0  2  0  0  0  0  0  0  0  0  0
  -11.2031   43.3264   24.0920 C   0  0  0  0  0  0  0  0  0  0  0  0
  -11.0726   42.7276   25.4312 C   0  0  0  0  0  0  0  0  0  0  0  0
   -9.7929   42.1086   25.8519 C   0  0  0  0  0  0  0  0  0  0  0  0
   -9.1680   40.9796   25.1662 C   0  0  0  0  0  0  0  0  0  0  0  0
   -9.9143   39.7593   25.0731 N   0  0  0  0  0  0  0  0  0  0  0  0
  -10.9785   43.1315   21.6755 N   0  0  0  0  0  0  0  0  0  0  0  0
   -9.8735   42.8927   20.8030 C   0  0  0  0  0  0  0  0  0  0  0  0
   -8.9802   42.0255   21.0523 O   0  0  0  0  0  0  0  0  0  0  0  0
   -9.6905   43.6544   19.5315 C   0  0  2  0  0  0  0  0  0  0  0  0
  -10.9819   44.0113   18.8571 C   0  0  0  0  0  0  0  0  0  0  0  0
  -10.7725   44.7333   17.5561 C   0  0  0  0  0  0  0  0  0  0  0  0
  -10.0422   46.0110   17.6469 C   0  0  0  0  0  0  0  0  0  0  0  0
   -9.7412   46.6395   16.3770 N   0  0  0  0  0  0  0  0  0  0  0  0
   -9.6731   46.5778   18.6899 O   0  0  0  0  0  0  0  0  0  0  0  0
   -8.6246   43.2486   18.6876 N   0  0  0  0  0  0  0  0  0  0  0  0
   -7.3334   43.8784   18.6090 C   0  0  0  0  0  0  0  0  0  0  0  0
   -7.2106   44.8684   19.4178 O   0  0  0  0  0  0  0  0  0  0  0  0
   -6.2625   43.4719   17.7247 C   0  0  2  0  0  0  0  0  0  0  0  0
   -5.8501   44.6088   16.7765 C   0  0  0  0  0  0  0  0  0  0  0  0
   -5.3470   45.8214   17.5014 C   0  0  0  0  0  0  0  0  0  0  0  0
   -4.1573   45.4584   18.3533 C   0  0  0  0  0  0  0  0  0  0  0  0
   -3.5832   46.7004   18.9730 C   0  0  0  0  0  0  0  0  0  0  0  0
   -4.5745   47.3573   19.7784 N   0  0  0  0  0  0  0  0  0  0  0  0
   -6.5648   42.3517   16.8575 N   0  0  0  0  0  0  0  0  0  0  0  0
   -6.3228   42.2222   15.4840 C   0  0  0  0  0  0  0  0  0  0  0  0
   -5.8269   43.0934   14.7271 O   0  0  0  0  0  0  0  0  0  0  0  0
   -6.6692   40.9253   14.7689 C   0  0  2  0  0  0  0  0  0  0  0  0
   -8.0855   41.1459   14.2008 C   0  0  0  0  0  0  0  0  0  0  0  0
   -8.2063   42.2402   13.2184 C   0  0  0  0  0  0  0  0  0  0  0  0
   -9.6641   42.3891   12.8138 C   0  0  0  0  0  0  0  0  0  0  0  0
  -10.2668   41.1513   12.2281 C   0  0  0  0  0  0  0  0  0  0  0  0
  -11.6705   41.3614   11.8803 N   0  0  0  0  0  0  0  0  0  0  0  0
   -6.8286   39.8265   15.6954 N   0  0  0  0  0  0  0  0  0  0  0  0
   -5.8917   38.7274   15.7723 C   0  0  0  0  0  0  0  0  0  0  0  0
   -4.9003   38.7766   15.0110 O   0  0  0  0  0  0  0  0  0  0  0  0
   -6.1714   37.6344   16.7414 C   0  0  2  0  0  0  0  0  0  0  0  0
   -5.8841   36.2615   16.2694 C   0  0  0  0  0  0  0  0  0  0  0  0
   -4.5119   35.9555   15.8999 C   0  0  0  0  0  0  0  0  0  0  0  0
   -3.5473   36.8074   15.9485 O   0  0  0  0  0  0  0  0  0  0  0  0
   -4.1783   34.6827   15.4643 O   0  0  0  0  0  0  0  0  0  0  0  0
   -7.5530   37.7749   17.1544 N   0  0  0  0  0  0  0  0  0  0  0  0
   -8.0006   38.0503   18.4501 C   0  0  0  0  0  0  0  0  0  0  0  0
   -7.1988   38.1899   19.3958 O   0  0  0  0  0  0  0  0  0  0  0  0
   -9.4877   38.1880   18.7133 C   0  0  1  0  0  0  0  0  0  0  0  0
   -9.6333   38.4931   20.1063 N   0  0  0  0  0  0  0  0  0  0  0  0
   -9.9663   39.2500   17.7902 C   0  0  0  0  0  0  0  0  0  0  0  0
  -11.4002   39.6242   17.8552 C   0  0  0  0  0  0  0  0  0  0  0  0
  -11.7433   40.7060   16.8237 C   0  0  0  0  0  0  0  0  0  0  0  0
  -13.1221   41.0610   16.9201 N   0  0  0  0  0  0  0  0  0  0  0  0
  -13.7769   42.0678   16.1659 C   0  0  0  0  0  0  0  0  0  0  0  0
  -15.1601   42.3085   16.3749 N   0  0  0  0  0  0  0  0  0  0  0  0
  -13.0641   42.7250   15.3153 N   0  0  0  0  0  0  0  0  0  0  0  0
  -15.5800   40.9939   21.4176 C   0  0  0  0  0  0  0  0  0  0  0  0
  -15.8057   42.2148   22.3097 C   0  0  0  0  0  0  0  0  0  0  0  0
  -15.8465   41.4026   20.0113 C   0  0  0  0  0  0  0  0  0  0  0  0
  -10.3635   35.6694   12.1394 C   0  0  0  0  0  0  0  0  0  0  0  0
  -11.0894   34.7001   11.7298 O   0  0  0  0  0  0  0  0  0  0  0  0
   -9.6569   36.5333   11.2903 N   0  0  0  0  0  0  0  0  0  0  0  0
   -9.6552   36.3389    9.8684 C   0  0  1  0  0  0  0  0  0  0  0  0
  -11.1094   36.2960    9.3370 C   0  0  0  0  0  0  0  0  0  0  0  0
  -11.0221   36.0549    7.8761 C   0  0  0  0  0  0  0  0  0  0  0  0
  -10.8230   34.7641    7.4564 C   0  0  0  0  0  0  0  0  0  0  0  0
  -10.7494   34.3619    6.1482 C   0  0  0  0  0  0  0  0  0  0  0  0
  -10.8880   35.3534    5.1792 C   0  0  0  0  0  0  0  0  0  0  0  0
  -11.0895   36.6496    5.5567 C   0  0  0  0  0  0  0  0  0  0  0  0
  -11.1597   37.0214    6.9069 C   0  0  0  0  0  0  0  0  0  0  0  0
   -8.9585   37.2940    9.0471 C   0  0  0  0  0  0  0  0  0  0  0  0
   -8.7298   36.9786    7.8307 O   0  0  0  0  0  0  0  0  0  0  0  0
   -8.4831   38.5955    9.4191 N   0  0  0  0  0  0  0  0  0  0  0  0
   -7.8500   39.4211    8.4482 C   0  0  1  0  0  0  0  0  0  0  0  0
   -8.5899   40.6997    8.0930 C   0  0  0  0  0  0  0  0  0  0  0  0
   -9.8973   40.6095    7.5106 C   0  0  0  0  0  0  0  0  0  0  0  0
   -9.9742   40.4624    6.1098 C   0  0  0  0  0  0  0  0  0  0  0  0
  -11.1885   40.4162    5.4594 C   0  0  0  0  0  0  0  0  0  0  0  0
  -12.3862   40.5096    6.1238 C   0  0  0  0  0  0  0  0  0  0  0  0
  -13.6141   40.4653    5.4861 O   0  0  0  0  0  0  0  0  0  0  0  0
  -12.3334   40.6547    7.5174 C   0  0  0  0  0  0  0  0  0  0  0  0
  -11.1163   40.6984    8.1455 C   0  0  0  0  0  0  0  0  0  0  0  0
   -6.5156   39.8794    8.8216 C   0  0  0  0  0  0  0  0  0  0  0  0
   -5.9513   40.6248    7.9054 O   0  0  0  0  0  0  0  0  0  0  0  0
   -5.7496   39.6710    9.9607 N   0  0  0  0  0  0  0  0  0  0  0  0
   -4.4232   40.3114    9.9850 C   0  0  1  0  0  0  0  0  0  0  0  0
   -4.4822   41.3926   11.0688 C   0  0  0  0  0  0  0  0  0  0  0  0
   -3.2028   42.1788   11.1850 C   0  0  0  0  0  0  0  0  0  0  0  0
   -3.3724   43.2080   12.2879 C   0  0  0  0  0  0  0  0  0  0  0  0
   -2.1277   44.0545   12.4412 C   0  0  0  0  0  0  0  0  0  0  0  0
   -0.9519   43.2753   12.7568 N   0  0  0  0  0  0  0  0  0  0  0  0
   -3.3379   39.3334   10.2128 C   0  0  0  0  0  0  0  0  0  0  0  0
   -2.1097   39.6491   10.2408 O   0  0  0  0  0  0  0  0  0  0  0  0
   -3.6312   37.9582   10.4170 N   0  0  0  0  0  0  0  0  0  0  0  0
   -2.5907   36.9822   10.6433 C   0  0  1  0  0  0  0  0  0  0  0  0
   -2.8187   36.3124   11.9566 C   0  0  0  0  0  0  0  0  0  0  0  0
   -2.5413   36.0263    9.4863 C   0  0  0  0  0  0  0  0  0  0  0  0
   -2.8734   34.8184    9.6041 O   0  0  0  0  0  0  0  0  0  0  0  0
   -2.1001   36.5806    8.2762 O   0  0  0  0  0  0  0  0  0  0  0  0
  1  2  1  0
  2  3  1  0
  2  4  1  0
  5  4  1  1
  5  6  1  0
  6  7  1  0
  7  8  2  0
  7  9  1  0
  9 10  1  6
  9 11  1  0
 11 12  1  0
 12 13  2  0
 12 14  1  0
 14 15  1  1
 15 16  1  0
 16 17  2  0
 17 18  1  0
 18 19  1  0
 19 20  2  0
 14 21  1  0
 21 22  1  0
 22 23  2  0
 22 24  1  0
 24 25  1  6
 25 26  1  0
 26 27  2  0
 26 28  1  0
 28 29  1  1
 29 30  1  0
 30 31  1  0
 31 32  1  0
 32 33  1  0
 28 34  1  0
 34 35  1  0
 35 36  2  0
 35 37  1  0
 37 38  1  6
 38 39  1  0
 39 40  1  0
 40 41  1  0
 40 42  2  0
 37 43  1  0
 43 44  1  0
 44 45  2  0
 44 46  1  0
 46 47  1  6
 47 48  1  0
 48 49  1  0
 49 50  1  0
 50 51  1  0
 46 52  1  0
 52 53  1  0
 53 54  2  0
 53 55  1  0
 55 56  1  1
 56 57  1  0
 57 58  1  0
 58 59  1  0
 59 60  1  0
 55 61  1  0
 61 62  1  0
 62 63  2  0
 62 64  1  0
 64 65  1  6
 65 66  1  0
 66 67  2  0
 66 68  1  0
 64 69  1  0
 69 70  1  0
 70 71  2  0
 70 72  1  0
 72 73  1  1
 72 74  1  0
 74 75  1  0
 75 76  1  0
 76 77  1  0
 77 78  1  0
 78 79  1  0
 78 80  2  0
 24 81  1  0
 81 82  1  0
 81 83  1  0
  5 84  1  0
 84 85  2  0
 84 86  1  0
 86 87  1  0
 87 88  1  6
 88 89  1  0
 89 90  2  0
 90 91  1  0
 91 92  2  0
 92 93  1  0
 93 94  2  0
 87 95  1  0
 95 96  2  0
 95 97  1  0
 97 98  1  0
 98 99  1  1
 99100  1  0
100101  2  0
101102  1  0
102103  2  0
103104  1  0
103105  1  0
105106  2  0
 98107  1  0
107108  2  0
107109  1  0
109110  1  0
110111  1  1
111112  1  0
112113  1  0
113114  1  0
114115  1  0
110116  1  0
116117  2  0
116118  1  0
118119  1  0
119120  1  1
119121  1  0
121122  2  0
121123  1  0
 20 16  1  0
 94 89  1  0
106100  1  0
M  CHG  8  33   1  51   1  60   1  68  -1  73   1  80   1 115   1 123  -1
M  END
>  <shape_align_shape_tanimoto>  (2) 
0.16807201102631164

>  <shape_align_color_tanimoto>  (2) 
0.041571362892035592

>  <metric>  (2) 
color

>  <metric_score>  (2) 
0.042

>  <template_pid>  (2) 
4RIS

>  <template_shape_score>  (2) 
0.168

>  <template_color_score>  (2) 
0.042

>  <template_combo_score>  (2) 
0.105

$$$$
4RIS_combo_pose
     RDKit          3D

123125  0  0  0  0  0  0  0  0999 V2000
  -16.6099   40.2272   20.1853 C   0  0  0  0  0  0  0  0  0  0  0  0
  -15.8889   38.8991   20.0719 C   0  0  0  0  0  0  0  0  0  0  0  0
  -16.9325   37.8181   19.9486 C   0  0  0  0  0  0  0  0  0  0  0  0
  -15.1310   38.9200   18.7599 C   0  0  0  0  0  0  0  0  0  0  0  0
  -14.3474   37.7106   18.4609 C   0  0  2  0  0  0  0  0  0  0  0  0
  -13.3165   37.4521   19.5013 N   0  0  0  0  0  0  0  0  0  0  0  0
  -12.7629   36.1796   19.4095 C   0  0  0  0  0  0  0  0  0  0  0  0
  -13.2324   35.4401   18.4476 O   0  0  0  0  0  0  0  0  0  0  0  0
  -11.7254   35.5140   20.2086 C   0  0  2  0  0  0  0  0  0  0  0  0
  -10.6724   36.3601   20.7386 C   0  0  0  0  0  0  0  0  0  0  0  0
  -11.2800   34.4142   19.3157 N   0  0  0  0  0  0  0  0  0  0  0  0
  -10.8498   34.8849   18.0549 C   0  0  0  0  0  0  0  0  0  0  0  0
  -10.8673   36.1563   17.9078 O   0  0  0  0  0  0  0  0  0  0  0  0
  -10.3961   34.1044   16.9029 C   0  0  2  0  0  0  0  0  0  0  0  0
   -9.5487   32.9568   17.2227 C   0  0  0  0  0  0  0  0  0  0  0  0
   -8.2961   33.1097   17.9358 C   0  0  0  0  0  0  0  0  0  0  0  0
   -8.1946   33.0441   19.3372 C   0  0  0  0  0  0  0  0  0  0  0  0
   -6.9209   33.1978   19.7125 N   0  0  0  0  0  0  0  0  0  0  0  0
   -6.2097   33.3576   18.5926 C   0  0  0  0  0  0  0  0  0  0  0  0
   -7.0296   33.3045   17.5338 N   0  0  0  0  0  0  0  0  0  0  0  0
  -10.0523   34.9743   15.7867 N   0  0  0  0  0  0  0  0  0  0  0  0
  -10.5467   34.7965   14.4731 C   0  0  0  0  0  0  0  0  0  0  0  0
  -11.3258   33.7539   14.3558 O   0  0  0  0  0  0  0  0  0  0  0  0
  -10.3343   35.5589   13.2698 C   0  0  1  0  0  0  0  0  0  0  0  0
   -9.7869   36.8822   13.2723 N   0  0  0  0  0  0  0  0  0  0  0  0
  -10.0315   37.6763   12.1221 C   0  0  0  0  0  0  0  0  0  0  0  0
  -10.7632   37.0191   11.2339 O   0  0  0  0  0  0  0  0  0  0  0  0
   -9.6613   38.9962   11.7000 C   0  0  2  0  0  0  0  0  0  0  0  0
   -8.3502   38.7809   10.8272 C   0  0  0  0  0  0  0  0  0  0  0  0
   -7.8431   40.0518   10.2973 C   0  0  0  0  0  0  0  0  0  0  0  0
   -6.5679   39.7501    9.4981 C   0  0  0  0  0  0  0  0  0  0  0  0
   -5.9418   40.9604    8.9044 C   0  0  0  0  0  0  0  0  0  0  0  0
   -5.5292   41.9398    9.8734 N   0  0  0  0  0  0  0  0  0  0  0  0
   -9.3661   40.0774   12.5961 N   0  0  0  0  0  0  0  0  0  0  0  0
   -9.8241   41.3917   12.1903 C   0  0  0  0  0  0  0  0  0  0  0  0
  -10.4571   41.3267   11.0466 O   0  0  0  0  0  0  0  0  0  0  0  0
   -9.7145   42.6717   12.7701 C   0  0  2  0  0  0  0  0  0  0  0  0
   -8.6553   43.5027   11.9578 C   0  0  0  0  0  0  0  0  0  0  0  0
   -9.1529   43.6101   10.5504 C   0  0  0  0  0  0  0  0  0  0  0  0
   -8.2247   44.4959    9.7527 C   0  0  0  0  0  0  0  0  0  0  0  0
   -8.5021   44.6709    8.3740 N   0  0  0  0  0  0  0  0  0  0  0  0
   -7.2575   45.0515   10.2874 O   0  0  0  0  0  0  0  0  0  0  0  0
   -9.4508   42.9282   14.1620 N   0  0  0  0  0  0  0  0  0  0  0  0
   -9.8387   44.2340   14.6171 C   0  0  0  0  0  0  0  0  0  0  0  0
  -10.3517   44.9572   13.6532 O   0  0  0  0  0  0  0  0  0  0  0  0
   -9.7713   44.8722   15.8813 C   0  0  2  0  0  0  0  0  0  0  0  0
   -9.0665   46.2214   15.7440 C   0  0  0  0  0  0  0  0  0  0  0  0
   -7.6728   46.1428   15.2485 C   0  0  0  0  0  0  0  0  0  0  0  0
   -7.1043   47.5644   15.1457 C   0  0  0  0  0  0  0  0  0  0  0  0
   -5.7024   47.6177   14.6375 C   0  0  0  0  0  0  0  0  0  0  0  0
   -4.7598   46.9035   15.4548 N   0  0  0  0  0  0  0  0  0  0  0  0
   -9.4459   44.2058   17.0757 N   0  0  0  0  0  0  0  0  0  0  0  0
   -9.0930   44.8057   18.3289 C   0  0  0  0  0  0  0  0  0  0  0  0
   -8.9477   46.0265   18.4797 O   0  0  0  0  0  0  0  0  0  0  0  0
   -8.9188   43.8321   19.5035 C   0  0  2  0  0  0  0  0  0  0  0  0
  -10.3717   43.5996   19.8683 C   0  0  0  0  0  0  0  0  0  0  0  0
  -10.7558   42.7831   21.0014 C   0  0  0  0  0  0  0  0  0  0  0  0
  -10.4848   41.3409   21.1200 C   0  0  0  0  0  0  0  0  0  0  0  0
   -9.0840   40.8531   21.1067 C   0  0  0  0  0  0  0  0  0  0  0  0
   -9.1542   39.3923   21.2548 N   0  0  0  0  0  0  0  0  0  0  0  0
   -8.1456   44.2134   20.5880 N   0  0  0  0  0  0  0  0  0  0  0  0
   -7.8320   45.4470   21.1979 C   0  0  0  0  0  0  0  0  0  0  0  0
   -8.2480   46.5614   20.8002 O   0  0  0  0  0  0  0  0  0  0  0  0
   -6.9685   45.4287   22.3860 C   0  0  2  0  0  0  0  0  0  0  0  0
   -7.6531   44.5441   23.4681 C   0  0  0  0  0  0  0  0  0  0  0  0
   -8.9727   45.0561   23.8383 C   0  0  0  0  0  0  0  0  0  0  0  0
   -9.6386   44.4331   24.7094 O   0  0  0  0  0  0  0  0  0  0  0  0
   -9.5369   46.1982   23.2800 O   0  0  0  0  0  0  0  0  0  0  0  0
   -6.7892   46.6952   23.0347 N   0  0  0  0  0  0  0  0  0  0  0  0
   -5.7741   46.8008   24.0527 C   0  0  0  0  0  0  0  0  0  0  0  0
   -5.0536   45.7935   24.3712 O   0  0  0  0  0  0  0  0  0  0  0  0
   -5.5928   48.0889   24.7219 C   0  0  1  0  0  0  0  0  0  0  0  0
   -4.7596   47.8190   25.9209 N   0  0  0  0  0  0  0  0  0  0  0  0
   -4.9971   49.1946   23.9373 C   0  0  0  0  0  0  0  0  0  0  0  0
   -3.6231   49.0764   23.4269 C   0  0  0  0  0  0  0  0  0  0  0  0
   -3.2891   48.0139   22.4355 C   0  0  0  0  0  0  0  0  0  0  0  0
   -1.8365   48.1034   22.1224 N   0  0  0  0  0  0  0  0  0  0  0  0
   -1.2128   47.2231   21.2278 C   0  0  0  0  0  0  0  0  0  0  0  0
    0.1890   47.3932   20.9822 N   0  0  0  0  0  0  0  0  0  0  0  0
   -1.8958   46.3058   20.6512 N   0  0  0  0  0  0  0  0  0  0  0  0
   -9.4835   34.6881   12.2759 C   0  0  0  0  0  0  0  0  0  0  0  0
  -10.2960   33.4678   11.9990 C   0  0  0  0  0  0  0  0  0  0  0  0
   -8.1281   34.4004   12.7934 C   0  0  0  0  0  0  0  0  0  0  0  0
  -13.4225   38.0057   17.2567 C   0  0  0  0  0  0  0  0  0  0  0  0
  -13.7189   37.5391   16.1287 O   0  0  0  0  0  0  0  0  0  0  0  0
  -12.2649   38.7933   17.4309 N   0  0  0  0  0  0  0  0  0  0  0  0
  -11.2877   39.1302   16.4512 C   0  0  1  0  0  0  0  0  0  0  0  0
  -12.0895   39.8617   15.3481 C   0  0  0  0  0  0  0  0  0  0  0  0
  -12.8780   40.9900   15.8035 C   0  0  0  0  0  0  0  0  0  0  0  0
  -14.2761   40.8522   15.9608 C   0  0  0  0  0  0  0  0  0  0  0  0
  -15.0523   41.8858   16.4287 C   0  0  0  0  0  0  0  0  0  0  0  0
  -14.5442   43.1123   16.7742 C   0  0  0  0  0  0  0  0  0  0  0  0
  -13.1628   43.2688   16.6260 C   0  0  0  0  0  0  0  0  0  0  0  0
  -12.3960   42.2362   16.1602 C   0  0  0  0  0  0  0  0  0  0  0  0
  -10.1041   39.7922   16.8891 C   0  0  0  0  0  0  0  0  0  0  0  0
  -10.1559   40.5699   17.8955 O   0  0  0  0  0  0  0  0  0  0  0  0
   -8.7738   39.6937   16.3255 N   0  0  0  0  0  0  0  0  0  0  0  0
   -7.6741   40.4713   16.9151 C   0  0  1  0  0  0  0  0  0  0  0  0
   -7.0333   39.5341   18.0151 C   0  0  0  0  0  0  0  0  0  0  0  0
   -6.4706   38.3555   17.2814 C   0  0  0  0  0  0  0  0  0  0  0  0
   -7.2093   37.2690   16.9083 C   0  0  0  0  0  0  0  0  0  0  0  0
   -6.5876   36.2676   16.2118 C   0  0  0  0  0  0  0  0  0  0  0  0
   -5.2549   36.2826   15.8604 C   0  0  0  0  0  0  0  0  0  0  0  0
   -4.6282   35.2755   15.1614 O   0  0  0  0  0  0  0  0  0  0  0  0
   -4.5063   37.3725   16.2351 C   0  0  0  0  0  0  0  0  0  0  0  0
   -5.1351   38.3703   16.9320 C   0  0  0  0  0  0  0  0  0  0  0  0
   -6.5778   40.6964   15.9362 C   0  0  0  0  0  0  0  0  0  0  0  0
   -6.5646   40.1298   14.8101 O   0  0  0  0  0  0  0  0  0  0  0  0
   -5.4568   41.5528   16.2008 N   0  0  0  0  0  0  0  0  0  0  0  0
   -4.3892   41.6506   15.2013 C   0  0  1  0  0  0  0  0  0  0  0  0
   -4.3266   43.0447   14.5840 C   0  0  0  0  0  0  0  0  0  0  0  0
   -3.2277   43.1841   13.5685 C   0  0  0  0  0  0  0  0  0  0  0  0
   -3.1588   44.5296   12.8772 C   0  0  0  0  0  0  0  0  0  0  0  0
   -4.3869   44.8614   12.0985 C   0  0  0  0  0  0  0  0  0  0  0  0
   -4.2732   46.1499   11.4383 N   0  0  0  0  0  0  0  0  0  0  0  0
   -3.0806   41.3967   15.8537 C   0  0  0  0  0  0  0  0  0  0  0  0
   -2.0047   41.1809   15.2036 O   0  0  0  0  0  0  0  0  0  0  0  0
   -2.8978   41.3711   17.2788 N   0  0  0  0  0  0  0  0  0  0  0  0
   -1.5662   41.1049   17.8344 C   0  0  1  0  0  0  0  0  0  0  0  0
   -1.1020   42.3296   18.6075 C   0  0  0  0  0  0  0  0  0  0  0  0
   -1.6518   40.0038   18.8182 C   0  0  0  0  0  0  0  0  0  0  0  0
   -0.5806   39.4703   19.2400 O   0  0  0  0  0  0  0  0  0  0  0  0
   -2.8381   39.4997   19.3284 O   0  0  0  0  0  0  0  0  0  0  0  0
  1  2  1  0
  2  3  1  0
  2  4  1  0
  5  4  1  1
  5  6  1  0
  6  7  1  0
  7  8  2  0
  7  9  1  0
  9 10  1  6
  9 11  1  0
 11 12  1  0
 12 13  2  0
 12 14  1  0
 14 15  1  1
 15 16  1  0
 16 17  2  0
 17 18  1  0
 18 19  1  0
 19 20  2  0
 14 21  1  0
 21 22  1  0
 22 23  2  0
 22 24  1  0
 24 25  1  1
 25 26  1  0
 26 27  2  0
 26 28  1  0
 28 29  1  1
 29 30  1  0
 30 31  1  0
 31 32  1  0
 32 33  1  0
 28 34  1  0
 34 35  1  0
 35 36  2  0
 35 37  1  0
 37 38  1  6
 38 39  1  0
 39 40  1  0
 40 41  1  0
 40 42  2  0
 37 43  1  0
 43 44  1  0
 44 45  2  0
 44 46  1  0
 46 47  1  6
 47 48  1  0
 48 49  1  0
 49 50  1  0
 50 51  1  0
 46 52  1  0
 52 53  1  0
 53 54  2  0
 53 55  1  0
 55 56  1  1
 56 57  1  0
 57 58  1  0
 58 59  1  0
 59 60  1  0
 55 61  1  0
 61 62  1  0
 62 63  2  0
 62 64  1  0
 64 65  1  1
 65 66  1  0
 66 67  2  0
 66 68  1  0
 64 69  1  0
 69 70  1  0
 70 71  2  0
 70 72  1  0
 72 73  1  1
 72 74  1  0
 74 75  1  0
 75 76  1  0
 76 77  1  0
 77 78  1  0
 78 79  1  0
 78 80  2  0
 24 81  1  0
 81 82  1  0
 81 83  1  0
  5 84  1  0
 84 85  2  0
 84 86  1  0
 86 87  1  0
 87 88  1  6
 88 89  1  0
 89 90  2  0
 90 91  1  0
 91 92  2  0
 92 93  1  0
 93 94  2  0
 87 95  1  0
 95 96  2  0
 95 97  1  0
 97 98  1  0
 98 99  1  1
 99100  1  0
100101  2  0
101102  1  0
102103  2  0
103104  1  0
103105  1  0
105106  2  0
 98107  1  0
107108  2  0
107109  1  0
109110  1  0
110111  1  1
111112  1  0
112113  1  0
113114  1  0
114115  1  0
110116  1  0
116117  2  0
116118  1  0
118119  1  0
119120  1  1
119121  1  0
121122  2  0
121123  1  0
 20 16  1  0
 94 89  1  0
106100  1  0
M  CHG  8  33   1  51   1  60   1  68  -1  73   1  80   1 115   1 123  -1
M  END
>  <shape_align_shape_tanimoto>  (3) 
0.21341827613733419

>  <shape_align_color_tanimoto>  (3) 
0.018762571939610135

>  <metric>  (3) 
combo

>  <metric_score>  (3) 
0.116

>  <template_pid>  (3) 
4RIS

>  <template_shape_score>  (3) 
0.213

>  <template_color_score>  (3) 
0.019

>  <template_combo_score>  (3) 
0.116

$$$$
