1G3B_shape_pose
     RDKit          3D

 17 17  0  0  0  0  0  0  0  0999 V2000
    5.4391   48.3974   60.3275 C   0  0  0  0  0  0  0  0  0  0  0  0
    6.8210   48.0126   59.8259 C   0  0  2  0  0  0  0  0  0  0  0  0
    7.8039   48.7083   60.6267 N   0  0  0  0  0  0  0  0  0  0  0  0
    9.0672   48.4441   60.6028 C   0  0  0  0  0  0  0  0  0  0  0  0
   10.0255   49.1717   61.4283 C   0  0  0  0  0  0  0  0  0  0  0  0
   11.3786   48.9055   61.4180 C   0  0  0  0  0  0  0  0  0  0  0  0
   12.2087   49.6465   62.2337 C   0  0  0  0  0  0  0  0  0  0  0  0
   13.6596   49.4088   62.2659 C   0  0  0  0  0  0  0  0  0  0  0  0
   14.3594   48.9278   61.1181 N   0  0  0  0  0  0  0  0  0  0  0  0
   14.3566   49.6307   63.3491 N   0  0  0  0  0  0  0  0  0  0  0  0
   11.7149   50.6433   63.0552 C   0  0  0  0  0  0  0  0  0  0  0  0
   10.3661   50.9197   63.0755 C   0  0  0  0  0  0  0  0  0  0  0  0
    9.5310   50.1786   62.2589 C   0  0  0  0  0  0  0  0  0  0  0  0
    8.1491   50.4340   62.2545 O   0  0  0  0  0  0  0  0  0  0  0  0
    6.9059   48.3637   58.3859 C   0  0  0  0  0  0  0  0  0  0  0  0
    6.0972   49.1844   57.8780 O   0  0  0  0  0  0  0  0  0  0  0  0
    7.8676   47.8083   57.5529 O   0  0  0  0  0  0  0  0  0  0  0  0
  2  1  1  1
  2  3  1  0
  3  4  2  0
  4  5  1  0
  5  6  2  0
  6  7  1  0
  7  8  1  0
  8  9  1  0
  8 10  2  0
  7 11  2  0
 11 12  1  0
 12 13  2  0
 13 14  1  0
  2 15  1  0
 15 16  2  0
 15 17  1  0
 13  5  1  0
M  CHG  2  10   1  17  -1
M  END
>  <shape_align_shape_tanimoto>  (1) 
0.45708014316379481

>  <shape_align_color_tanimoto>  (1) 
0.030310632982882866

>  <metric>  (1) 
shape

>  <metric_score>  (1) 
0.457

>  <template_pid>  (1) 
1G3B

>  <template_shape_score>  (1) 
0.457

>  <template_color_score>  (1) 
0.030

>  <template_combo_score>  (1) 
0.244

$$$$
1G3B_color_pose
     RDKit          3D

 17 17  0  0  0  0  0  0  0  0999 V2000
    9.6886   47.5367   62.5332 C   0  0  0  0  0  0  0  0  0  0  0  0
    8.8334   48.7487   62.3178 C   0  0  2  0  0  0  0  0  0  0  0  0
    8.0513   48.6737   61.0988 N   0  0  0  0  0  0  0  0  0  0  0  0
    8.5131   49.0536   59.9531 C   0  0  0  0  0  0  0  0  0  0  0  0
    7.7259   48.9780   58.7269 C   0  0  0  0  0  0  0  0  0  0  0  0
    8.2829   49.4015   57.5381 C   0  0  0  0  0  0  0  0  0  0  0  0
    7.5433   49.3323   56.3755 C   0  0  0  0  0  0  0  0  0  0  0  0
    8.1655   49.7894   55.1362 C   0  0  0  0  0  0  0  0  0  0  0  0
    9.5743   49.6792   54.9732 N   0  0  0  0  0  0  0  0  0  0  0  0
    7.4536   50.2984   54.1722 N   0  0  0  0  0  0  0  0  0  0  0  0
    6.2419   48.8361   56.4122 C   0  0  0  0  0  0  0  0  0  0  0  0
    5.6849   48.4105   57.6128 C   0  0  0  0  0  0  0  0  0  0  0  0
    6.4387   48.4845   58.7783 C   0  0  0  0  0  0  0  0  0  0  0  0
    5.9435   48.0770   60.0078 O   0  0  0  0  0  0  0  0  0  0  0  0
    9.6501   50.0054   62.3505 C   0  0  0  0  0  0  0  0  0  0  0  0
    9.0499   51.1064   62.5212 O   0  0  0  0  0  0  0  0  0  0  0  0
   11.0339   49.9573   62.1966 O   0  0  0  0  0  0  0  0  0  0  0  0
  2  1  1  6
  2  3  1  0
  3  4  2  0
  4  5  1  0
  5  6  2  0
  6  7  1  0
  7  8  1  0
  8  9  1  0
  8 10  2  0
  7 11  2  0
 11 12  1  0
 12 13  2  0
 13 14  1  0
  2 15  1  0
 15 16  2  0
 15 17  1  0
 13  5  1  0
M  CHG  2  10   1  17  -1
M  END
>  <shape_align_shape_tanimoto>  (2) 
0.4171038068425405

>  <shape_align_color_tanimoto>  (2) 
0.11494412338873669

>  <metric>  (2) 
color

>  <metric_score>  (2) 
0.115

>  <template_pid>  (2) 
1G3B

>  <template_shape_score>  (2) 
0.417

>  <template_color_score>  (2) 
0.115

>  <template_combo_score>  (2) 
0.266

$$$$
1G3B_combo_pose
     RDKit          3D

 17 17  0  0  0  0  0  0  0  0999 V2000
    9.6886   47.5367   62.5332 C   0  0  0  0  0  0  0  0  0  0  0  0
    8.8334   48.7487   62.3178 C   0  0  2  0  0  0  0  0  0  0  0  0
    8.0513   48.6737   61.0988 N   0  0  0  0  0  0  0  0  0  0  0  0
    8.5131   49.0536   59.9531 C   0  0  0  0  0  0  0  0  0  0  0  0
    7.7259   48.9780   58.7269 C   0  0  0  0  0  0  0  0  0  0  0  0
    8.2829   49.4015   57.5381 C   0  0  0  0  0  0  0  0  0  0  0  0
    7.5433   49.3323   56.3755 C   0  0  0  0  0  0  0  0  0  0  0  0
    8.1655   49.7894   55.1362 C   0  0  0  0  0  0  0  0  0  0  0  0
    9.5743   49.6792   54.9732 N   0  0  0  0  0  0  0  0  0  0  0  0
    7.4536   50.2984   54.1722 N   0  0  0  0  0  0  0  0  0  0  0  0
    6.2419   48.8361   56.4122 C   0  0  0  0  0  0  0  0  0  0  0  0
    5.6849   48.4105   57.6128 C   0  0  0  0  0  0  0  0  0  0  0  0
    6.4387   48.4845   58.7783 C   0  0  0  0  0  0  0  0  0  0  0  0
    5.9435   48.0770   60.0078 O   0  0  0  0  0  0  0  0  0  0  0  0
    9.6501   50.0054   62.3505 C   0  0  0  0  0  0  0  0  0  0  0  0
    9.0499   51.1064   62.5212 O   0  0  0  0  0  0  0  0  0  0  0  0
   11.0339   49.9573   62.1966 O   0  0  0  0  0  0  0  0  0  0  0  0
  2  1  1  6
  2  3  1  0
  3  4  2  0
  4  5  1  0
  5  6  2  0
  6  7  1  0
  7  8  1  0
  8  9  1  0
  8 10  2  0
  7 11  2  0
 11 12  1  0
 12 13  2  0
 13 14  1  0
  2 15  1  0
 15 16  2  0
 15 17  1  0
 13  5  1  0
M  CHG  2  10   1  17  -1
M  END
>  <shape_align_shape_tanimoto>  (3) 
0.4171038068425405

>  <shape_align_color_tanimoto>  (3) 
0.11494412338873669

>  <metric>  (3) 
combo

>  <metric_score>  (3) 
0.266

>  <template_pid>  (3) 
1G3B

>  <template_shape_score>  (3) 
0.417

>  <template_color_score>  (3) 
0.115

>  <template_combo_score>  (3) 
0.266

$$$$
