5AVI_shape_pose
     RDKit          3D

 30 31  0  0  0  0  0  0  0  0999 V2000
   11.5941    4.2760   -6.7271 C   0  0  0  0  0  0  0  0  0  0  0  0
   12.4896    3.0849   -6.8611 C   0  0  0  0  0  0  0  0  0  0  0  0
   13.7292    3.2435   -7.0600 O   0  0  0  0  0  0  0  0  0  0  0  0
   11.9153    1.7780   -6.7597 N   0  0  0  0  0  0  0  0  0  0  0  0
   12.8015    0.6271   -6.8933 C   0  0  0  0  0  0  0  0  0  0  0  0
   10.5203    1.5839   -6.5346 C   0  0  0  0  0  0  0  0  0  0  0  0
    9.6143    1.4790   -7.5882 C   0  0  0  0  0  0  0  0  0  0  0  0
    8.2583    1.2880   -7.3054 C   0  0  0  0  0  0  0  0  0  0  0  0
    7.8493    1.2080   -5.9918 C   0  0  0  0  0  0  0  0  0  0  0  0
    6.5321    1.0203   -5.6067 O   0  0  0  0  0  0  0  0  0  0  0  0
    5.4984    0.8964   -6.5675 C   0  0  0  0  0  0  0  0  0  0  0  0
    4.1786    0.7003   -5.9034 C   0  0  0  0  0  0  0  0  0  0  0  0
    3.2336    1.7104   -5.8154 C   0  0  0  0  0  0  0  0  0  0  0  0
    2.0073    1.5409   -5.2079 C   0  0  0  0  0  0  0  0  0  0  0  0
    1.6791    0.3215   -4.6542 C   0  0  0  0  0  0  0  0  0  0  0  0
    0.3600    0.1728   -4.0121 C   0  0  0  0  0  0  0  0  0  0  0  0
   -0.6515    0.4171   -4.9363 F   0  0  0  0  0  0  0  0  0  0  0  0
    0.1673   -1.0655   -3.4700 F   0  0  0  0  0  0  0  0  0  0  0  0
    0.2392    1.0860   -2.9770 F   0  0  0  0  0  0  0  0  0  0  0  0
    2.6178   -0.6823   -4.7413 C   0  0  0  0  0  0  0  0  0  0  0  0
    3.8482   -0.5283   -5.3453 C   0  0  0  0  0  0  0  0  0  0  0  0
    4.7775   -1.6675   -5.3763 C   0  0  0  0  0  0  0  0  0  0  0  0
    4.4228   -2.7686   -4.8538 O   0  0  0  0  0  0  0  0  0  0  0  0
    6.0201   -1.6142   -5.9418 O   0  0  0  0  0  0  0  0  0  0  0  0
    6.8877   -2.6948   -5.9632 C   0  0  0  0  0  0  0  0  0  0  0  0
    7.2383   -3.1639   -4.5711 C   0  0  0  0  0  0  0  0  0  0  0  0
    8.1959   -2.3018   -6.6556 C   0  0  0  0  0  0  0  0  0  0  0  0
    6.3735   -3.8905   -6.7197 C   0  0  0  0  0  0  0  0  0  0  0  0
    8.7755    1.3159   -4.9478 C   0  0  0  0  0  0  0  0  0  0  0  0
   10.1188    1.5048   -5.2131 C   0  0  0  0  0  0  0  0  0  0  0  0
  1  2  1  0
  2  3  2  0
  2  4  1  0
  4  5  1  0
  4  6  1  0
  6  7  2  0
  7  8  1  0
  8  9  2  0
  9 10  1  0
 10 11  1  0
 11 12  1  0
 12 13  2  0
 13 14  1  0
 14 15  2  0
 15 16  1  0
 16 17  1  0
 16 18  1  0
 16 19  1  0
 15 20  1  0
 20 21  2  0
 21 22  1  0
 22 23  2  0
 22 24  1  0
 24 25  1  0
 25 26  1  0
 25 27  1  0
 25 28  1  0
  9 29  1  0
 29 30  2  0
 30  6  1  0
 21 12  1  0
M  END
>  <shape_align_shape_tanimoto>  (1) 
0.60788544806306832

>  <shape_align_color_tanimoto>  (1) 
0.0021993117292811839

>  <metric>  (1) 
shape

>  <metric_score>  (1) 
0.608

>  <template_pid>  (1) 
5AVI

>  <template_shape_score>  (1) 
0.608

>  <template_color_score>  (1) 
0.002

>  <template_combo_score>  (1) 
0.305

$$$$
5AVI_color_pose
     RDKit          3D

 30 31  0  0  0  0  0  0  0  0999 V2000
   -0.4978   -2.0889    0.9128 C   0  0  0  0  0  0  0  0  0  0  0  0
    0.1441   -1.6215   -0.3398 C   0  0  0  0  0  0  0  0  0  0  0  0
   -0.3186   -2.1092   -1.4189 O   0  0  0  0  0  0  0  0  0  0  0  0
    1.2086   -0.6940   -0.3982 N   0  0  0  0  0  0  0  0  0  0  0  0
    1.7904   -0.0669    0.7684 C   0  0  0  0  0  0  0  0  0  0  0  0
    1.7350   -0.3484   -1.6691 C   0  0  0  0  0  0  0  0  0  0  0  0
    2.7488   -1.1260   -2.1740 C   0  0  0  0  0  0  0  0  0  0  0  0
    3.2737   -0.7842   -3.4093 C   0  0  0  0  0  0  0  0  0  0  0  0
    2.7911    0.3194   -4.1291 C   0  0  0  0  0  0  0  0  0  0  0  0
    3.2472    0.6818   -5.2889 O   0  0  0  0  0  0  0  0  0  0  0  0
    3.9198    0.7621   -6.4141 C   0  0  0  0  0  0  0  0  0  0  0  0
    5.4116    0.8827   -6.2936 C   0  0  0  0  0  0  0  0  0  0  0  0
    5.9577    2.1702   -6.3169 C   0  0  0  0  0  0  0  0  0  0  0  0
    7.3071    2.3926   -6.1527 C   0  0  0  0  0  0  0  0  0  0  0  0
    8.1239    1.2991   -5.9612 C   0  0  0  0  0  0  0  0  0  0  0  0
    9.6026    1.4962   -5.7735 C   0  0  0  0  0  0  0  0  0  0  0  0
    9.7890    2.2511   -4.6237 F   0  0  0  0  0  0  0  0  0  0  0  0
   10.2123    2.0265   -6.8696 F   0  0  0  0  0  0  0  0  0  0  0  0
   10.1783    0.2541   -5.5111 F   0  0  0  0  0  0  0  0  0  0  0  0
    7.5735    0.0424   -5.9419 C   0  0  0  0  0  0  0  0  0  0  0  0
    6.2242   -0.2131   -6.1048 C   0  0  0  0  0  0  0  0  0  0  0  0
    5.7411   -1.5837   -6.1266 C   0  0  0  0  0  0  0  0  0  0  0  0
    4.5706   -1.9445   -6.3325 O   0  0  0  0  0  0  0  0  0  0  0  0
    6.6748   -2.5875   -5.8967 O   0  0  0  0  0  0  0  0  0  0  0  0
    6.3959   -3.9659   -5.8888 C   0  0  0  0  0  0  0  0  0  0  0  0
    5.3851   -4.4009   -4.8826 C   0  0  0  0  0  0  0  0  0  0  0  0
    7.7142   -4.6612   -5.5382 C   0  0  0  0  0  0  0  0  0  0  0  0
    5.9952   -4.4992   -7.2550 C   0  0  0  0  0  0  0  0  0  0  0  0
    1.7477    1.0671   -3.5406 C   0  0  0  0  0  0  0  0  0  0  0  0
    1.2155    0.7448   -2.3196 C   0  0  0  0  0  0  0  0  0  0  0  0
  1  2  1  0
  2  3  2  0
  2  4  1  0
  4  5  1  0
  4  6  1  0
  6  7  2  0
  7  8  1  0
  8  9  2  0
  9 10  1  0
 10 11  1  0
 11 12  1  0
 12 13  2  0
 13 14  1  0
 14 15  2  0
 15 16  1  0
 16 17  1  0
 16 18  1  0
 16 19  1  0
 15 20  1  0
 20 21  2  0
 21 22  1  0
 22 23  2  0
 22 24  1  0
 24 25  1  0
 25 26  1  0
 25 27  1  0
 25 28  1  0
  9 29  1  0
 29 30  2  0
 30  6  1  0
 21 12  1  0
M  END
>  <shape_align_shape_tanimoto>  (2) 
0.45450463783209871

>  <shape_align_color_tanimoto>  (2) 
0.098781093863785599

>  <metric>  (2) 
color

>  <metric_score>  (2) 
0.099

>  <template_pid>  (2) 
5AVI

>  <template_shape_score>  (2) 
0.455

>  <template_color_score>  (2) 
0.099

>  <template_combo_score>  (2) 
0.277

$$$$
5AVI_combo_pose
     RDKit          3D

 30 31  0  0  0  0  0  0  0  0999 V2000
   13.3110   -0.4234   -6.8286 C   0  0  0  0  0  0  0  0  0  0  0  0
   13.7410    0.9730   -7.0967 C   0  0  0  0  0  0  0  0  0  0  0  0
   14.9812    1.1665   -7.3065 O   0  0  0  0  0  0  0  0  0  0  0  0
   12.7875    2.0153   -7.1105 N   0  0  0  0  0  0  0  0  0  0  0  0
   13.1823    3.3855   -7.3697 C   0  0  0  0  0  0  0  0  0  0  0  0
   11.4180    1.7557   -6.8717 C   0  0  0  0  0  0  0  0  0  0  0  0
   10.8360    1.7799   -5.6210 C   0  0  0  0  0  0  0  0  0  0  0  0
    9.4909    1.5220   -5.4121 C   0  0  0  0  0  0  0  0  0  0  0  0
    8.7209    1.2309   -6.5193 C   0  0  0  0  0  0  0  0  0  0  0  0
    7.3609    0.9539   -6.4478 O   0  0  0  0  0  0  0  0  0  0  0  0
    6.7253    0.9690   -5.1810 C   0  0  0  0  0  0  0  0  0  0  0  0
    5.2977    0.6615   -5.2519 C   0  0  0  0  0  0  0  0  0  0  0  0
    4.3720    1.6961   -5.0955 C   0  0  0  0  0  0  0  0  0  0  0  0
    3.0114    1.4760   -5.1421 C   0  0  0  0  0  0  0  0  0  0  0  0
    2.5543    0.1959   -5.3493 C   0  0  0  0  0  0  0  0  0  0  0  0
    1.1075   -0.0682   -5.4035 C   0  0  0  0  0  0  0  0  0  0  0  0
    0.6455   -0.6958   -4.2848 F   0  0  0  0  0  0  0  0  0  0  0  0
    0.3826    1.0961   -5.6601 F   0  0  0  0  0  0  0  0  0  0  0  0
    0.8758   -0.9326   -6.4715 F   0  0  0  0  0  0  0  0  0  0  0  0
    3.4758   -0.7984   -5.4995 C   0  0  0  0  0  0  0  0  0  0  0  0
    4.8395   -0.6210   -5.4599 C   0  0  0  0  0  0  0  0  0  0  0  0
    5.7254   -1.7599   -5.6433 C   0  0  0  0  0  0  0  0  0  0  0  0
    6.9777   -1.6927   -5.6359 O   0  0  0  0  0  0  0  0  0  0  0  0
    5.1737   -3.0206   -5.8425 O   0  0  0  0  0  0  0  0  0  0  0  0
    6.0954   -4.0892   -6.0146 C   0  0  0  0  0  0  0  0  0  0  0  0
    5.2872   -5.3481   -6.2133 C   0  0  0  0  0  0  0  0  0  0  0  0
    6.9527   -3.8461   -7.2278 C   0  0  0  0  0  0  0  0  0  0  0  0
    6.9912   -4.2382   -4.8024 C   0  0  0  0  0  0  0  0  0  0  0  0
    9.2853    1.2012   -7.7856 C   0  0  0  0  0  0  0  0  0  0  0  0
   10.6277    1.4616   -7.9685 C   0  0  0  0  0  0  0  0  0  0  0  0
  1  2  1  0
  2  3  2  0
  2  4  1  0
  4  5  1  0
  4  6  1  0
  6  7  2  0
  7  8  1  0
  8  9  2  0
  9 10  1  0
 10 11  1  0
 11 12  1  0
 12 13  2  0
 13 14  1  0
 14 15  2  0
 15 16  1  0
 16 17  1  0
 16 18  1  0
 16 19  1  0
 15 20  1  0
 20 21  2  0
 21 22  1  0
 22 23  2  0
 22 24  1  0
 24 25  1  0
 25 26  1  0
 25 27  1  0
 25 28  1  0
  9 29  1  0
 29 30  2  0
 30  6  1  0
 21 12  1  0
M  END
>  <shape_align_shape_tanimoto>  (3) 
0.58481493824170305

>  <shape_align_color_tanimoto>  (3) 
0.047310306125388793

>  <metric>  (3) 
combo

>  <metric_score>  (3) 
0.316

>  <template_pid>  (3) 
5AVI

>  <template_shape_score>  (3) 
0.585

>  <template_color_score>  (3) 
0.047

>  <template_combo_score>  (3) 
0.316

$$$$
