3KRJ_shape_pose
     RDKit          3D

 28 31  0  0  0  0  0  0  0  0999 V2000
  -43.3078  -57.5795  -12.8421 N   0  0  0  0  0  0  0  0  0  0  0  0
  -43.2836  -56.4211  -12.9288 C   0  0  0  0  0  0  0  0  0  0  0  0
  -43.2627  -54.9842  -13.0412 C   0  0  0  0  0  0  0  0  0  0  0  0
  -43.6696  -54.2893  -14.1654 C   0  0  0  0  0  0  0  0  0  0  0  0
  -43.5021  -52.9833  -13.8866 N   0  0  0  0  0  0  0  0  0  0  0  0
  -43.0085  -52.8308  -12.6382 C   0  0  0  0  0  0  0  0  0  0  0  0
  -42.6783  -51.6117  -11.9322 C   0  0  0  0  0  0  0  0  0  0  0  0
  -42.2194  -51.5751  -10.7597 O   0  0  0  0  0  0  0  0  0  0  0  0
  -42.8892  -50.3546  -12.6179 N   0  0  0  0  0  0  0  0  0  0  0  0
  -42.5448  -49.1944  -11.8686 C   0  0  0  0  0  0  0  0  0  0  0  0
  -43.6080  -48.6643  -11.1182 C   0  0  0  0  0  0  0  0  0  0  0  0
  -43.4452  -47.5576  -10.3155 C   0  0  0  0  0  0  0  0  0  0  0  0
  -42.1866  -46.9997  -10.2875 C   0  0  0  0  0  0  0  0  0  0  0  0
  -41.9803  -45.8013   -9.4093 C   0  0  0  0  0  0  0  0  0  0  0  0
  -43.1494  -44.9081   -9.3013 C   0  0  0  0  0  0  0  0  0  0  0  0
  -44.0125  -45.0422   -8.1046 C   0  0  0  0  0  0  0  0  0  0  0  0
  -43.5110  -45.7697   -7.0075 N   0  0  0  0  0  0  0  0  0  0  0  0
  -42.5643  -46.8059   -7.2800 C   0  0  0  0  0  0  0  0  0  0  0  0
  -41.4480  -46.1790   -8.0587 C   0  0  0  0  0  0  0  0  0  0  0  0
  -41.1245  -47.5259  -11.0352 C   0  0  0  0  0  0  0  0  0  0  0  0
  -41.2841  -48.6443  -11.8487 C   0  0  0  0  0  0  0  0  0  0  0  0
  -40.1600  -49.1187  -12.6178 C   0  0  0  0  0  0  0  0  0  0  0  0
  -38.9470  -48.5723  -12.4133 C   0  0  0  0  0  0  0  0  0  0  0  0
  -37.8067  -49.0969  -13.2344 C   0  0  0  0  0  0  0  0  0  0  0  0
  -37.7541  -50.5987  -13.2663 C   0  0  0  0  0  0  0  0  0  0  0  0
  -39.1249  -51.2476  -13.3292 C   0  0  0  0  0  0  0  0  0  0  0  0
  -40.1560  -50.1502  -13.6723 C   0  0  0  0  0  0  0  0  0  0  0  0
  -42.8644  -54.0734  -12.1249 N   0  0  0  0  0  0  0  0  0  0  0  0
  1  2  3  0
  2  3  1  0
  3  4  2  0
  4  5  1  0
  5  6  1  0
  6  7  1  0
  7  8  2  0
  7  9  1  0
  9 10  1  0
 10 11  2  0
 11 12  1  0
 12 13  2  0
 13 14  1  0
 14 15  1  0
 15 16  1  0
 16 17  1  0
 17 18  1  0
 18 19  1  0
 13 20  1  0
 20 21  2  0
 21 22  1  0
 22 23  2  0
 23 24  1  0
 24 25  1  0
 25 26  1  0
 26 27  1  0
  6 28  2  0
 28  3  1  0
 21 10  1  0
 27 22  1  0
 19 14  1  0
M  CHG  1  17   1
M  END
>  <shape_align_shape_tanimoto>  (1) 
0.54631512814537009

>  <shape_align_color_tanimoto>  (1) 
0.020892588774665596

>  <metric>  (1) 
shape

>  <metric_score>  (1) 
0.546

>  <template_pid>  (1) 
3KRJ

>  <template_shape_score>  (1) 
0.546

>  <template_color_score>  (1) 
0.021

>  <template_combo_score>  (1) 
0.284

$$$$
3KRJ_color_pose
     RDKit          3D

 28 31  0  0  0  0  0  0  0  0999 V2000
  -44.6903  -43.8216   -7.9895 N   0  0  0  0  0  0  0  0  0  0  0  0
  -44.1274  -44.8325   -7.9335 C   0  0  0  0  0  0  0  0  0  0  0  0
  -43.4440  -46.0842   -7.8570 C   0  0  0  0  0  0  0  0  0  0  0  0
  -42.5772  -46.5777   -6.9130 C   0  0  0  0  0  0  0  0  0  0  0  0
  -42.2194  -47.8108   -7.3201 N   0  0  0  0  0  0  0  0  0  0  0  0
  -42.8186  -48.1222   -8.4776 C   0  0  0  0  0  0  0  0  0  0  0  0
  -42.6857  -49.3671   -9.2377 C   0  0  0  0  0  0  0  0  0  0  0  0
  -41.9414  -50.2688   -8.7965 O   0  0  0  0  0  0  0  0  0  0  0  0
  -43.4233  -49.4904  -10.4619 N   0  0  0  0  0  0  0  0  0  0  0  0
  -43.2617  -50.7162  -11.1633 C   0  0  0  0  0  0  0  0  0  0  0  0
  -44.1863  -51.7079  -10.7901 C   0  0  0  0  0  0  0  0  0  0  0  0
  -44.1622  -52.9646  -11.3490 C   0  0  0  0  0  0  0  0  0  0  0  0
  -43.1857  -53.1961  -12.2907 C   0  0  0  0  0  0  0  0  0  0  0  0
  -43.1473  -54.5504  -12.9033 C   0  0  0  0  0  0  0  0  0  0  0  0
  -44.4754  -54.8445  -13.5749 C   0  0  0  0  0  0  0  0  0  0  0  0
  -44.4067  -56.1897  -14.2186 C   0  0  0  0  0  0  0  0  0  0  0  0
  -43.1565  -56.8638  -14.0415 N   0  0  0  0  0  0  0  0  0  0  0  0
  -42.7238  -56.9305  -12.6686 C   0  0  0  0  0  0  0  0  0  0  0  0
  -42.8881  -55.6460  -11.9065 C   0  0  0  0  0  0  0  0  0  0  0  0
  -42.2662  -52.2172  -12.6657 C   0  0  0  0  0  0  0  0  0  0  0  0
  -42.2841  -50.9387  -12.1033 C   0  0  0  0  0  0  0  0  0  0  0  0
  -41.3287  -49.9615  -12.5608 C   0  0  0  0  0  0  0  0  0  0  0  0
  -40.3333  -50.3432  -13.4025 C   0  0  0  0  0  0  0  0  0  0  0  0
  -39.3643  -49.2742  -13.8453 C   0  0  0  0  0  0  0  0  0  0  0  0
  -38.8163  -48.6473  -12.5766 C   0  0  0  0  0  0  0  0  0  0  0  0
  -39.9253  -48.2853  -11.6137 C   0  0  0  0  0  0  0  0  0  0  0  0
  -41.2899  -48.5170  -12.2568 C   0  0  0  0  0  0  0  0  0  0  0  0
  -43.5674  -47.0473   -8.7912 N   0  0  0  0  0  0  0  0  0  0  0  0
  1  2  3  0
  2  3  1  0
  3  4  2  0
  4  5  1  0
  5  6  1  0
  6  7  1  0
  7  8  2  0
  7  9  1  0
  9 10  1  0
 10 11  2  0
 11 12  1  0
 12 13  2  0
 13 14  1  0
 14 15  1  0
 15 16  1  0
 16 17  1  0
 17 18  1  0
 18 19  1  0
 13 20  1  0
 20 21  2  0
 21 22  1  0
 22 23  2  0
 23 24  1  0
 24 25  1  0
 25 26  1  0
 26 27  1  0
  6 28  2  0
 28  3  1  0
 21 10  1  0
 27 22  1  0
 19 14  1  0
M  CHG  1  17   1
M  END
>  <shape_align_shape_tanimoto>  (2) 
0.51702359845161971

>  <shape_align_color_tanimoto>  (2) 
0.15763866886222169

>  <metric>  (2) 
color

>  <metric_score>  (2) 
0.158

>  <template_pid>  (2) 
3KRJ

>  <template_shape_score>  (2) 
0.517

>  <template_color_score>  (2) 
0.158

>  <template_combo_score>  (2) 
0.337

$$$$
3KRJ_combo_pose
     RDKit          3D

 28 31  0  0  0  0  0  0  0  0999 V2000
  -44.6715  -43.7790   -7.8037 N   0  0  0  0  0  0  0  0  0  0  0  0
  -44.1267  -44.7908   -7.7893 C   0  0  0  0  0  0  0  0  0  0  0  0
  -43.4648  -46.0506   -7.7900 C   0  0  0  0  0  0  0  0  0  0  0  0
  -42.6070  -46.6020   -6.8511 C   0  0  0  0  0  0  0  0  0  0  0  0
  -42.2273  -47.8121   -7.2743 N   0  0  0  0  0  0  0  0  0  0  0  0
  -42.8233  -48.0420   -8.4593 C   0  0  0  0  0  0  0  0  0  0  0  0
  -42.6661  -49.2550   -9.2524 C   0  0  0  0  0  0  0  0  0  0  0  0
  -41.9290  -50.1864   -8.8396 O   0  0  0  0  0  0  0  0  0  0  0  0
  -43.3701  -49.3584  -10.5088 N   0  0  0  0  0  0  0  0  0  0  0  0
  -43.1693  -50.5668  -11.2262 C   0  0  0  0  0  0  0  0  0  0  0  0
  -44.1234  -51.5620  -10.9334 C   0  0  0  0  0  0  0  0  0  0  0  0
  -44.0677  -52.8063  -11.5144 C   0  0  0  0  0  0  0  0  0  0  0  0
  -43.0352  -53.0326  -12.3962 C   0  0  0  0  0  0  0  0  0  0  0  0
  -42.9684  -54.3716  -13.0275 C   0  0  0  0  0  0  0  0  0  0  0  0
  -44.1928  -54.6923  -13.8330 C   0  0  0  0  0  0  0  0  0  0  0  0
  -44.5441  -56.1659  -13.7971 C   0  0  0  0  0  0  0  0  0  0  0  0
  -43.2807  -56.8942  -13.8132 N   0  0  0  0  0  0  0  0  0  0  0  0
  -42.7763  -56.8062  -12.4448 C   0  0  0  0  0  0  0  0  0  0  0  0
  -42.6860  -55.3983  -11.9591 C   0  0  0  0  0  0  0  0  0  0  0  0
  -42.0868  -52.0436  -12.6882 C   0  0  0  0  0  0  0  0  0  0  0  0
  -42.1377  -50.7851  -12.1043 C   0  0  0  0  0  0  0  0  0  0  0  0
  -41.1496  -49.8099  -12.5025 C   0  0  0  0  0  0  0  0  0  0  0  0
  -41.1860  -48.5145  -12.2481 C   0  0  0  0  0  0  0  0  0  0  0  0
  -40.0847  -47.6198  -12.7262 C   0  0  0  0  0  0  0  0  0  0  0  0
  -38.8100  -48.2362  -12.2025 C   0  0  0  0  0  0  0  0  0  0  0  0
  -38.6569  -49.6095  -12.7478 C   0  0  0  0  0  0  0  0  0  0  0  0
  -39.9186  -50.2544  -13.2470 C   0  0  0  0  0  0  0  0  0  0  0  0
  -43.5708  -46.9687   -8.7627 N   0  0  0  0  0  0  0  0  0  0  0  0
  1  2  3  0
  2  3  1  0
  3  4  2  0
  4  5  1  0
  5  6  1  0
  6  7  1  0
  7  8  2  0
  7  9  1  0
  9 10  1  0
 10 11  2  0
 11 12  1  0
 12 13  2  0
 13 14  1  0
 14 15  1  0
 15 16  1  0
 16 17  1  0
 17 18  1  0
 18 19  1  0
 13 20  1  0
 20 21  2  0
 21 22  1  0
 22 23  2  0
 23 24  1  0
 24 25  1  0
 25 26  1  0
 26 27  1  0
  6 28  2  0
 28  3  1  0
 21 10  1  0
 27 22  1  0
 19 14  1  0
M  CHG  1  17   1
M  END
>  <shape_align_shape_tanimoto>  (3) 
0.52788114596903923

>  <shape_align_color_tanimoto>  (3) 
0.15638861503275009

>  <metric>  (3) 
combo

>  <metric_score>  (3) 
0.342

>  <template_pid>  (3) 
3KRJ

>  <template_shape_score>  (3) 
0.528

>  <template_color_score>  (3) 
0.156

>  <template_combo_score>  (3) 
0.342

$$$$
