1U1B_shape_pose
     RDKit          3D

 51 55  0  0  0  0  0  0  0  0999 V2000
  -28.2363   -7.7503    1.3301 C   0  0  0  0  0  0  0  0  0  0  0  0
  -26.8693   -7.4703    0.8044 C   0  0  0  0  0  0  0  0  0  0  0  0
  -26.6639   -6.3580    0.0301 C   0  0  0  0  0  0  0  0  0  0  0  0
  -25.4807   -6.0256   -0.4835 N   0  0  0  0  0  0  0  0  0  0  0  0
  -25.2361   -4.8741   -1.2931 C   0  0  1  0  0  0  0  0  0  0  0  0
  -25.7990   -4.9421   -2.6850 C   0  0  0  0  0  0  0  0  0  0  0  0
  -26.0029   -3.4753   -2.9983 C   0  0  2  0  0  0  0  0  0  0  0  0
  -24.8350   -2.9712   -3.6151 O   0  0  0  0  0  0  0  0  0  0  0  0
  -25.2302   -2.4261   -5.1655 P   0  0  2  0  0  5  0  0  0  0  0  0
  -26.5576   -1.7130   -5.0830 O   0  0  0  0  0  0  0  0  0  0  0  0
  -25.4364   -3.7095   -6.2605 O   0  0  0  0  0  0  0  0  0  0  0  0
  -24.0557   -1.3507   -5.7513 O   0  0  0  0  0  0  0  0  0  0  0  0
  -22.5507   -1.9465   -5.2156 P   0  0  2  0  0  5  0  0  0  0  0  0
  -21.4629   -0.9362   -5.5781 O   0  0  0  0  0  0  0  0  0  0  0  0
  -22.1547   -3.3738   -6.0606 O   0  0  0  0  0  0  0  0  0  0  0  0
  -22.5220   -2.2396   -3.5728 O   0  0  0  0  0  0  0  0  0  0  0  0
  -22.2853   -1.1305   -2.7967 C   0  0  0  0  0  0  0  0  0  0  0  0
  -22.2668   -1.4496   -1.3222 C   0  0  1  0  0  0  0  0  0  0  0  0
  -21.2710   -2.3860   -0.9854 O   0  0  0  0  0  0  0  0  0  0  0  0
  -21.4239   -2.4204    0.3902 C   0  0  1  0  0  0  0  0  0  0  0  0
  -20.2830   -2.9546    1.0943 N   0  0  0  0  0  0  0  0  0  0  0  0
  -19.0167   -3.1235    0.6872 C   0  0  0  0  0  0  0  0  0  0  0  0
  -18.2894   -3.6665    1.7034 N   0  0  0  0  0  0  0  0  0  0  0  0
  -19.1103   -3.8377    2.7545 C   0  0  0  0  0  0  0  0  0  0  0  0
  -18.9824   -4.3277    4.0396 C   0  0  0  0  0  0  0  0  0  0  0  0
  -17.7212   -4.8005    4.4875 N   0  0  0  0  0  0  0  0  0  0  0  0
  -20.0349   -4.3722    4.8965 N   0  0  0  0  0  0  0  0  0  0  0  0
  -21.2529   -3.9295    4.5028 C   0  0  0  0  0  0  0  0  0  0  0  0
  -21.3666   -3.4546    3.2502 N   0  0  0  0  0  0  0  0  0  0  0  0
  -20.3492   -3.3921    2.3670 C   0  0  0  0  0  0  0  0  0  0  0  0
  -21.5996   -0.9863    0.8481 C   0  0  2  0  0  0  0  0  0  0  0  0
  -22.7953   -0.9050    1.5482 O   0  0  0  0  0  0  0  0  0  0  0  0
  -21.7894   -0.2736   -0.4978 C   0  0  2  0  0  0  0  0  0  0  0  0
  -22.7515    0.7231   -0.3585 O   0  0  0  0  0  0  0  0  0  0  0  0
  -21.9989    2.1899   -0.7638 P   0  0  0  0  0  0  0  0  0  0  0  0
  -22.7362    2.9148   -1.8575 O   0  0  0  0  0  0  0  0  0  0  0  0
  -21.9335    3.2237    0.5778 O   0  0  0  0  0  0  0  0  0  0  0  0
  -20.4131    1.9485   -1.3028 O   0  0  0  0  0  0  0  0  0  0  0  0
  -26.1783   -2.8771   -1.6438 C   0  0  1  0  0  0  0  0  0  0  0  0
  -27.5957   -2.3626   -1.3907 C   0  0  0  0  0  0  0  0  0  0  0  0
  -28.4378   -3.4471   -1.3895 O   0  0  0  0  0  0  0  0  0  0  0  0
  -30.0439   -3.0746   -1.1206 P   0  0  0  0  0  0  0  0  0  0  0  0
  -30.2151   -1.6348   -0.7421 O   0  0  0  0  0  0  0  0  0  0  0  0
  -30.9104   -3.4739   -2.5198 O   0  0  0  0  0  0  0  0  0  0  0  0
  -30.5973   -4.1316    0.1014 O   0  0  0  0  0  0  0  0  0  0  0  0
  -25.7745   -3.7574   -0.6811 O   0  0  0  0  0  0  0  0  0  0  0  0
  -24.4415   -6.8639   -0.2004 C   0  0  0  0  0  0  0  0  0  0  0  0
  -23.2779   -6.6347   -0.6421 O   0  0  0  0  0  0  0  0  0  0  0  0
  -24.5976   -7.9649    0.5541 N   0  0  0  0  0  0  0  0  0  0  0  0
  -25.7956   -8.2937    1.0691 C   0  0  0  0  0  0  0  0  0  0  0  0
  -25.9672   -9.3323    1.7869 O   0  0  0  0  0  0  0  0  0  0  0  0
  1  2  1  0
  2  3  2  0
  3  4  1  0
  5  4  1  1
  5  6  1  0
  6  7  1  0
  7  8  1  1
  8  9  1  0
  9 10  2  0
  9 11  1  6
  9 12  1  0
 12 13  1  0
 13 14  2  0
 13 15  1  6
 13 16  1  0
 16 17  1  0
 18 17  1  6
 18 19  1  0
 19 20  1  0
 20 21  1  1
 21 22  1  0
 22 23  2  0
 23 24  1  0
 24 25  2  0
 25 26  1  0
 25 27  1  0
 27 28  2  0
 28 29  1  0
 29 30  2  0
 20 31  1  0
 31 32  1  1
 31 33  1  0
 33 34  1  1
 34 35  1  0
 35 36  2  0
 35 37  1  0
 35 38  1  0
  7 39  1  0
 39 40  1  1
 40 41  1  0
 41 42  1  0
 42 43  2  0
 42 44  1  0
 42 45  1  0
 39 46  1  0
  4 47  1  0
 47 48  2  0
 47 49  1  0
 49 50  1  0
 50 51  2  0
 50  2  1  0
 46  5  1  0
 33 18  1  0
 30 21  1  0
 30 24  1  0
M  END
>  <shape_align_shape_tanimoto>  (1) 
0.45092666923553876

>  <shape_align_color_tanimoto>  (1) 
0.12335768831476229

>  <metric>  (1) 
shape

>  <metric_score>  (1) 
0.451

>  <template_pid>  (1) 
1U1B

>  <template_shape_score>  (1) 
0.451

>  <template_color_score>  (1) 
0.123

>  <template_combo_score>  (1) 
0.287

$$$$
1U1B_color_pose
     RDKit          3D

 51 55  0  0  0  0  0  0  0  0999 V2000
  -20.5416   -7.0667    1.4814 C   0  0  0  0  0  0  0  0  0  0  0  0
  -19.3339   -6.9154    0.6587 C   0  0  0  0  0  0  0  0  0  0  0  0
  -19.4489   -6.4436   -0.6315 C   0  0  0  0  0  0  0  0  0  0  0  0
  -18.3718   -6.2864   -1.4279 N   0  0  0  0  0  0  0  0  0  0  0  0
  -18.5888   -5.7897   -2.7550 C   0  0  1  0  0  0  0  0  0  0  0  0
  -19.9022   -5.0536   -2.8965 C   0  0  0  0  0  0  0  0  0  0  0  0
  -19.6409   -4.1298   -4.0601 C   0  0  2  0  0  0  0  0  0  0  0  0
  -20.1132   -4.5735   -5.2521 O   0  0  0  0  0  0  0  0  0  0  0  0
  -21.1371   -3.5927   -6.1111 P   0  0  2  0  0  5  0  0  0  0  0  0
  -21.4675   -4.2673   -7.4280 O   0  0  0  0  0  0  0  0  0  0  0  0
  -20.3210   -2.1648   -6.5100 O   0  0  0  0  0  0  0  0  0  0  0  0
  -22.5627   -3.1861   -5.3709 O   0  0  0  0  0  0  0  0  0  0  0  0
  -22.7015   -1.6011   -4.8783 P   0  0  2  0  0  5  0  0  0  0  0  0
  -24.1097   -1.0619   -5.0606 O   0  0  0  0  0  0  0  0  0  0  0  0
  -21.6840   -0.6314   -5.8159 O   0  0  0  0  0  0  0  0  0  0  0  0
  -22.2305   -1.5175   -3.2589 O   0  0  0  0  0  0  0  0  0  0  0  0
  -23.2518   -1.7970   -2.3893 C   0  0  0  0  0  0  0  0  0  0  0  0
  -22.7396   -1.6898   -0.9812 C   0  0  1  0  0  0  0  0  0  0  0  0
  -21.6951   -2.5759   -0.7214 O   0  0  0  0  0  0  0  0  0  0  0  0
  -21.4626   -2.2117    0.6257 C   0  0  1  0  0  0  0  0  0  0  0  0
  -20.3504   -2.8692    1.2194 N   0  0  0  0  0  0  0  0  0  0  0  0
  -19.1421   -3.1573    0.7078 C   0  0  0  0  0  0  0  0  0  0  0  0
  -18.3819   -3.7927    1.6189 N   0  0  0  0  0  0  0  0  0  0  0  0
  -19.0914   -3.9277    2.7452 C   0  0  0  0  0  0  0  0  0  0  0  0
  -18.8030   -4.4942    3.9741 C   0  0  0  0  0  0  0  0  0  0  0  0
  -17.5165   -5.0706    4.1616 N   0  0  0  0  0  0  0  0  0  0  0  0
  -19.7366   -4.4858    4.9512 N   0  0  0  0  0  0  0  0  0  0  0  0
  -20.9299   -3.9262    4.7096 C   0  0  0  0  0  0  0  0  0  0  0  0
  -21.2111   -3.3729    3.5085 N   0  0  0  0  0  0  0  0  0  0  0  0
  -20.3144   -3.3536    2.4960 C   0  0  0  0  0  0  0  0  0  0  0  0
  -21.3262   -0.7087    0.5838 C   0  0  2  0  0  0  0  0  0  0  0  0
  -22.0520   -0.1998    1.6732 O   0  0  0  0  0  0  0  0  0  0  0  0
  -22.0713   -0.3607   -0.6991 C   0  0  2  0  0  0  0  0  0  0  0  0
  -23.0181    0.6341   -0.4764 O   0  0  0  0  0  0  0  0  0  0  0  0
  -22.8496    1.9733   -1.4562 P   0  0  0  0  0  0  0  0  0  0  0  0
  -21.8343    2.9567   -0.9068 O   0  0  0  0  0  0  0  0  0  0  0  0
  -22.3626    1.5980   -3.0289 O   0  0  0  0  0  0  0  0  0  0  0  0
  -24.3432    2.8038   -1.4946 O   0  0  0  0  0  0  0  0  0  0  0  0
  -18.1314   -3.9989   -4.0386 C   0  0  1  0  0  0  0  0  0  0  0  0
  -17.7163   -2.6035   -3.5608 C   0  0  0  0  0  0  0  0  0  0  0  0
  -18.1339   -1.5963   -4.3929 O   0  0  0  0  0  0  0  0  0  0  0  0
  -17.6238   -0.0896   -3.7855 P   0  0  0  0  0  0  0  0  0  0  0  0
  -16.7289    0.5362   -4.8367 O   0  0  0  0  0  0  0  0  0  0  0  0
  -16.7961   -0.2935   -2.3458 O   0  0  0  0  0  0  0  0  0  0  0  0
  -18.9555    0.9147   -3.5392 O   0  0  0  0  0  0  0  0  0  0  0  0
  -17.6330   -4.8692   -3.0963 O   0  0  0  0  0  0  0  0  0  0  0  0
  -17.1366   -6.5858   -0.9907 C   0  0  0  0  0  0  0  0  0  0  0  0
  -16.1139   -6.4440   -1.7257 O   0  0  0  0  0  0  0  0  0  0  0  0
  -17.0117   -7.0463    0.2648 N   0  0  0  0  0  0  0  0  0  0  0  0
  -18.0578   -7.2192    1.0952 C   0  0  0  0  0  0  0  0  0  0  0  0
  -17.9480   -7.6485    2.2674 O   0  0  0  0  0  0  0  0  0  0  0  0
  1  2  1  0
  2  3  2  0
  3  4  1  0
  5  4  1  1
  5  6  1  0
  6  7  1  0
  7  8  1  6
  8  9  1  0
  9 10  2  0
  9 11  1  6
  9 12  1  0
 12 13  1  0
 13 14  2  0
 13 15  1  6
 13 16  1  0
 16 17  1  0
 18 17  1  6
 18 19  1  0
 19 20  1  0
 20 21  1  6
 21 22  1  0
 22 23  2  0
 23 24  1  0
 24 25  2  0
 25 26  1  0
 25 27  1  0
 27 28  2  0
 28 29  1  0
 29 30  2  0
 20 31  1  0
 31 32  1  1
 31 33  1  0
 33 34  1  1
 34 35  1  0
 35 36  2  0
 35 37  1  0
 35 38  1  0
  7 39  1  0
 39 40  1  1
 40 41  1  0
 41 42  1  0
 42 43  2  0
 42 44  1  0
 42 45  1  0
 39 46  1  0
  4 47  1  0
 47 48  2  0
 47 49  1  0
 49 50  1  0
 50 51  2  0
 50  2  1  0
 46  5  1  0
 33 18  1  0
 30 21  1  0
 30 24  1  0
M  END
>  <shape_align_shape_tanimoto>  (2) 
0.44924117051540119

>  <shape_align_color_tanimoto>  (2) 
0.12969894256103506

>  <metric>  (2) 
color

>  <metric_score>  (2) 
0.130

>  <template_pid>  (2) 
1U1B

>  <template_shape_score>  (2) 
0.449

>  <template_color_score>  (2) 
0.130

>  <template_combo_score>  (2) 
0.289

$$$$
1U1B_combo_pose
     RDKit          3D

 51 55  0  0  0  0  0  0  0  0999 V2000
  -20.5416   -7.0667    1.4814 C   0  0  0  0  0  0  0  0  0  0  0  0
  -19.3339   -6.9154    0.6587 C   0  0  0  0  0  0  0  0  0  0  0  0
  -19.4489   -6.4436   -0.6315 C   0  0  0  0  0  0  0  0  0  0  0  0
  -18.3718   -6.2864   -1.4279 N   0  0  0  0  0  0  0  0  0  0  0  0
  -18.5888   -5.7897   -2.7550 C   0  0  1  0  0  0  0  0  0  0  0  0
  -19.9022   -5.0536   -2.8965 C   0  0  0  0  0  0  0  0  0  0  0  0
  -19.6409   -4.1298   -4.0601 C   0  0  2  0  0  0  0  0  0  0  0  0
  -20.1132   -4.5735   -5.2521 O   0  0  0  0  0  0  0  0  0  0  0  0
  -21.1371   -3.5927   -6.1111 P   0  0  2  0  0  5  0  0  0  0  0  0
  -21.4675   -4.2673   -7.4280 O   0  0  0  0  0  0  0  0  0  0  0  0
  -20.3210   -2.1648   -6.5100 O   0  0  0  0  0  0  0  0  0  0  0  0
  -22.5627   -3.1861   -5.3709 O   0  0  0  0  0  0  0  0  0  0  0  0
  -22.7015   -1.6011   -4.8783 P   0  0  2  0  0  5  0  0  0  0  0  0
  -24.1097   -1.0619   -5.0606 O   0  0  0  0  0  0  0  0  0  0  0  0
  -21.6840   -0.6314   -5.8159 O   0  0  0  0  0  0  0  0  0  0  0  0
  -22.2305   -1.5175   -3.2589 O   0  0  0  0  0  0  0  0  0  0  0  0
  -23.2518   -1.7970   -2.3893 C   0  0  0  0  0  0  0  0  0  0  0  0
  -22.7396   -1.6898   -0.9812 C   0  0  1  0  0  0  0  0  0  0  0  0
  -21.6951   -2.5759   -0.7214 O   0  0  0  0  0  0  0  0  0  0  0  0
  -21.4626   -2.2117    0.6257 C   0  0  1  0  0  0  0  0  0  0  0  0
  -20.3504   -2.8692    1.2194 N   0  0  0  0  0  0  0  0  0  0  0  0
  -19.1421   -3.1573    0.7078 C   0  0  0  0  0  0  0  0  0  0  0  0
  -18.3819   -3.7927    1.6189 N   0  0  0  0  0  0  0  0  0  0  0  0
  -19.0914   -3.9277    2.7452 C   0  0  0  0  0  0  0  0  0  0  0  0
  -18.8030   -4.4942    3.9741 C   0  0  0  0  0  0  0  0  0  0  0  0
  -17.5165   -5.0706    4.1616 N   0  0  0  0  0  0  0  0  0  0  0  0
  -19.7366   -4.4858    4.9512 N   0  0  0  0  0  0  0  0  0  0  0  0
  -20.9299   -3.9262    4.7096 C   0  0  0  0  0  0  0  0  0  0  0  0
  -21.2111   -3.3729    3.5085 N   0  0  0  0  0  0  0  0  0  0  0  0
  -20.3144   -3.3536    2.4960 C   0  0  0  0  0  0  0  0  0  0  0  0
  -21.3262   -0.7087    0.5838 C   0  0  2  0  0  0  0  0  0  0  0  0
  -22.0520   -0.1998    1.6732 O   0  0  0  0  0  0  0  0  0  0  0  0
  -22.0713   -0.3607   -0.6991 C   0  0  2  0  0  0  0  0  0  0  0  0
  -23.0181    0.6341   -0.4764 O   0  0  0  0  0  0  0  0  0  0  0  0
  -22.8496    1.9733   -1.4562 P   0  0  0  0  0  0  0  0  0  0  0  0
  -21.8343    2.9567   -0.9068 O   0  0  0  0  0  0  0  0  0  0  0  0
  -22.3626    1.5980   -3.0289 O   0  0  0  0  0  0  0  0  0  0  0  0
  -24.3432    2.8038   -1.4946 O   0  0  0  0  0  0  0  0  0  0  0  0
  -18.1314   -3.9989   -4.0386 C   0  0  1  0  0  0  0  0  0  0  0  0
  -17.7163   -2.6035   -3.5608 C   0  0  0  0  0  0  0  0  0  0  0  0
  -18.1339   -1.5963   -4.3929 O   0  0  0  0  0  0  0  0  0  0  0  0
  -17.6238   -0.0896   -3.7855 P   0  0  0  0  0  0  0  0  0  0  0  0
  -16.7289    0.5362   -4.8367 O   0  0  0  0  0  0  0  0  0  0  0  0
  -16.7961   -0.2935   -2.3458 O   0  0  0  0  0  0  0  0  0  0  0  0
  -18.9555    0.9147   -3.5392 O   0  0  0  0  0  0  0  0  0  0  0  0
  -17.6330   -4.8692   -3.0963 O   0  0  0  0  0  0  0  0  0  0  0  0
  -17.1366   -6.5858   -0.9907 C   0  0  0  0  0  0  0  0  0  0  0  0
  -16.1139   -6.4440   -1.7257 O   0  0  0  0  0  0  0  0  0  0  0  0
  -17.0117   -7.0463    0.2648 N   0  0  0  0  0  0  0  0  0  0  0  0
  -18.0578   -7.2192    1.0952 C   0  0  0  0  0  0  0  0  0  0  0  0
  -17.9480   -7.6485    2.2674 O   0  0  0  0  0  0  0  0  0  0  0  0
  1  2  1  0
  2  3  2  0
  3  4  1  0
  5  4  1  1
  5  6  1  0
  6  7  1  0
  7  8  1  6
  8  9  1  0
  9 10  2  0
  9 11  1  6
  9 12  1  0
 12 13  1  0
 13 14  2  0
 13 15  1  6
 13 16  1  0
 16 17  1  0
 18 17  1  6
 18 19  1  0
 19 20  1  0
 20 21  1  6
 21 22  1  0
 22 23  2  0
 23 24  1  0
 24 25  2  0
 25 26  1  0
 25 27  1  0
 27 28  2  0
 28 29  1  0
 29 30  2  0
 20 31  1  0
 31 32  1  1
 31 33  1  0
 33 34  1  1
 34 35  1  0
 35 36  2  0
 35 37  1  0
 35 38  1  0
  7 39  1  0
 39 40  1  1
 40 41  1  0
 41 42  1  0
 42 43  2  0
 42 44  1  0
 42 45  1  0
 39 46  1  0
  4 47  1  0
 47 48  2  0
 47 49  1  0
 49 50  1  0
 50 51  2  0
 50  2  1  0
 46  5  1  0
 33 18  1  0
 30 21  1  0
 30 24  1  0
M  END
>  <shape_align_shape_tanimoto>  (3) 
0.44924117051540119

>  <shape_align_color_tanimoto>  (3) 
0.12969894256103506

>  <metric>  (3) 
combo

>  <metric_score>  (3) 
0.289

>  <template_pid>  (3) 
1U1B

>  <template_shape_score>  (3) 
0.449

>  <template_color_score>  (3) 
0.130

>  <template_combo_score>  (3) 
0.289

$$$$
