4DCD_shape_pose
     RDKit          3D

 29 30  0  0  0  0  0  0  0  0999 V2000
    4.2974    5.3723    1.8847 C   0  0  0  0  0  0  0  0  0  0  0  0
    5.1057    5.1284    0.5484 C   0  0  0  0  0  0  0  0  0  0  0  0
    3.9713    5.1420   -0.4685 C   0  0  0  0  0  0  0  0  0  0  0  0
    6.0561    6.2746    0.4606 C   0  0  0  0  0  0  0  0  0  0  0  0
    7.0135    6.3442   -0.5952 C   0  0  2  0  0  0  0  0  0  0  0  0
    7.8903    7.5173   -0.5651 N   0  0  0  0  0  0  0  0  0  0  0  0
    9.3046    7.4220   -0.5952 C   0  0  0  0  0  0  0  0  0  0  0  0
    9.7915    6.2635   -0.6506 O   0  0  0  0  0  0  0  0  0  0  0  0
   10.0317    8.5790   -0.5631 O   0  0  0  0  0  0  0  0  0  0  0  0
   11.4327    8.5855   -0.5859 C   0  0  0  0  0  0  0  0  0  0  0  0
   12.0572    7.8753    0.5517 C   0  0  0  0  0  0  0  0  0  0  0  0
   12.4998    6.5828    0.5260 C   0  0  0  0  0  0  0  0  0  0  0  0
   13.0550    5.9899    1.6613 C   0  0  0  0  0  0  0  0  0  0  0  0
   13.1565    6.7269    2.8246 C   0  0  0  0  0  0  0  0  0  0  0  0
   12.7227    8.0262    2.8825 C   0  0  0  0  0  0  0  0  0  0  0  0
   12.1821    8.5670    1.7388 C   0  0  0  0  0  0  0  0  0  0  0  0
    6.4617    6.3756   -1.9470 C   0  0  0  0  0  0  0  0  0  0  0  0
    5.8190    5.4478   -2.5039 O   0  0  0  0  0  0  0  0  0  0  0  0
    6.6126    7.5401   -2.8238 N   0  0  0  0  0  0  0  0  0  0  0  0
    6.0802    7.5689   -4.1522 C   0  0  2  0  0  0  0  0  0  0  0  0
    7.1930    7.7364   -5.1992 C   0  0  0  0  0  0  0  0  0  0  0  0
    8.0948    6.6862   -5.1214 O   0  0  0  0  0  0  0  0  0  0  0  0
    5.2117    8.7979   -4.2956 C   0  0  0  0  0  0  0  0  0  0  0  0
    4.0404    8.8371   -3.3587 C   0  0  2  0  0  0  0  0  0  0  0  0
    3.1048    7.6532   -3.5801 C   0  0  0  0  0  0  0  0  0  0  0  0
    1.8922    8.1410   -2.8181 C   0  0  0  0  0  0  0  0  0  0  0  0
    1.8346    9.5223   -3.2435 N   0  0  0  0  0  0  0  0  0  0  0  0
    3.1265    9.9512   -3.7153 C   0  0  0  0  0  0  0  0  0  0  0  0
    3.4058   11.0359   -4.3001 O   0  0  0  0  0  0  0  0  0  0  0  0
  1  2  1  0
  2  3  1  0
  2  4  1  0
  5  4  1  1
  5  6  1  0
  6  7  1  0
  7  8  2  0
  7  9  1  0
  9 10  1  0
 10 11  1  0
 11 12  2  0
 12 13  1  0
 13 14  2  0
 14 15  1  0
 15 16  2  0
  5 17  1  0
 17 18  2  0
 17 19  1  0
 19 20  1  0
 20 21  1  6
 21 22  1  0
 20 23  1  0
 24 23  1  6
 24 25  1  0
 25 26  1  0
 26 27  1  0
 27 28  1  0
 28 29  2  0
 16 11  1  0
 28 24  1  0
M  END
>  <shape_align_shape_tanimoto>  (1) 
0.72091002556285166

>  <shape_align_color_tanimoto>  (1) 
0.22755846078061148

>  <metric>  (1) 
shape

>  <metric_score>  (1) 
0.721

>  <template_pid>  (1) 
4DCD

>  <template_shape_score>  (1) 
0.721

>  <template_color_score>  (1) 
0.228

>  <template_combo_score>  (1) 
0.474

$$$$
4DCD_color_pose
     RDKit          3D

 29 30  0  0  0  0  0  0  0  0999 V2000
    4.2974    5.3723    1.8847 C   0  0  0  0  0  0  0  0  0  0  0  0
    5.1057    5.1284    0.5484 C   0  0  0  0  0  0  0  0  0  0  0  0
    3.9713    5.1420   -0.4685 C   0  0  0  0  0  0  0  0  0  0  0  0
    6.0561    6.2746    0.4606 C   0  0  0  0  0  0  0  0  0  0  0  0
    7.0135    6.3442   -0.5952 C   0  0  2  0  0  0  0  0  0  0  0  0
    7.8903    7.5173   -0.5651 N   0  0  0  0  0  0  0  0  0  0  0  0
    9.3046    7.4220   -0.5952 C   0  0  0  0  0  0  0  0  0  0  0  0
    9.7915    6.2635   -0.6506 O   0  0  0  0  0  0  0  0  0  0  0  0
   10.0317    8.5790   -0.5631 O   0  0  0  0  0  0  0  0  0  0  0  0
   11.4327    8.5855   -0.5859 C   0  0  0  0  0  0  0  0  0  0  0  0
   12.0572    7.8753    0.5517 C   0  0  0  0  0  0  0  0  0  0  0  0
   12.4998    6.5828    0.5260 C   0  0  0  0  0  0  0  0  0  0  0  0
   13.0550    5.9899    1.6613 C   0  0  0  0  0  0  0  0  0  0  0  0
   13.1565    6.7269    2.8246 C   0  0  0  0  0  0  0  0  0  0  0  0
   12.7227    8.0262    2.8825 C   0  0  0  0  0  0  0  0  0  0  0  0
   12.1821    8.5670    1.7388 C   0  0  0  0  0  0  0  0  0  0  0  0
    6.4617    6.3756   -1.9470 C   0  0  0  0  0  0  0  0  0  0  0  0
    5.8190    5.4478   -2.5039 O   0  0  0  0  0  0  0  0  0  0  0  0
    6.6126    7.5401   -2.8238 N   0  0  0  0  0  0  0  0  0  0  0  0
    6.0802    7.5689   -4.1522 C   0  0  2  0  0  0  0  0  0  0  0  0
    7.1930    7.7364   -5.1992 C   0  0  0  0  0  0  0  0  0  0  0  0
    8.0948    6.6862   -5.1214 O   0  0  0  0  0  0  0  0  0  0  0  0
    5.2117    8.7979   -4.2956 C   0  0  0  0  0  0  0  0  0  0  0  0
    4.0404    8.8371   -3.3587 C   0  0  2  0  0  0  0  0  0  0  0  0
    3.1048    7.6532   -3.5801 C   0  0  0  0  0  0  0  0  0  0  0  0
    1.8922    8.1410   -2.8181 C   0  0  0  0  0  0  0  0  0  0  0  0
    1.8346    9.5223   -3.2435 N   0  0  0  0  0  0  0  0  0  0  0  0
    3.1265    9.9512   -3.7153 C   0  0  0  0  0  0  0  0  0  0  0  0
    3.4058   11.0359   -4.3001 O   0  0  0  0  0  0  0  0  0  0  0  0
  1  2  1  0
  2  3  1  0
  2  4  1  0
  5  4  1  1
  5  6  1  0
  6  7  1  0
  7  8  2  0
  7  9  1  0
  9 10  1  0
 10 11  1  0
 11 12  2  0
 12 13  1  0
 13 14  2  0
 14 15  1  0
 15 16  2  0
  5 17  1  0
 17 18  2  0
 17 19  1  0
 19 20  1  0
 20 21  1  6
 21 22  1  0
 20 23  1  0
 24 23  1  6
 24 25  1  0
 25 26  1  0
 26 27  1  0
 27 28  1  0
 28 29  2  0
 16 11  1  0
 28 24  1  0
M  END
>  <shape_align_shape_tanimoto>  (2) 
0.72091002556285166

>  <shape_align_color_tanimoto>  (2) 
0.22755846078061148

>  <metric>  (2) 
color

>  <metric_score>  (2) 
0.228

>  <template_pid>  (2) 
4DCD

>  <template_shape_score>  (2) 
0.721

>  <template_color_score>  (2) 
0.228

>  <template_combo_score>  (2) 
0.474

$$$$
4DCD_combo_pose
     RDKit          3D

 29 30  0  0  0  0  0  0  0  0999 V2000
    4.2974    5.3723    1.8847 C   0  0  0  0  0  0  0  0  0  0  0  0
    5.1057    5.1284    0.5484 C   0  0  0  0  0  0  0  0  0  0  0  0
    3.9713    5.1420   -0.4685 C   0  0  0  0  0  0  0  0  0  0  0  0
    6.0561    6.2746    0.4606 C   0  0  0  0  0  0  0  0  0  0  0  0
    7.0135    6.3442   -0.5952 C   0  0  2  0  0  0  0  0  0  0  0  0
    7.8903    7.5173   -0.5651 N   0  0  0  0  0  0  0  0  0  0  0  0
    9.3046    7.4220   -0.5952 C   0  0  0  0  0  0  0  0  0  0  0  0
    9.7915    6.2635   -0.6506 O   0  0  0  0  0  0  0  0  0  0  0  0
   10.0317    8.5790   -0.5631 O   0  0  0  0  0  0  0  0  0  0  0  0
   11.4327    8.5855   -0.5859 C   0  0  0  0  0  0  0  0  0  0  0  0
   12.0572    7.8753    0.5517 C   0  0  0  0  0  0  0  0  0  0  0  0
   12.4998    6.5828    0.5260 C   0  0  0  0  0  0  0  0  0  0  0  0
   13.0550    5.9899    1.6613 C   0  0  0  0  0  0  0  0  0  0  0  0
   13.1565    6.7269    2.8246 C   0  0  0  0  0  0  0  0  0  0  0  0
   12.7227    8.0262    2.8825 C   0  0  0  0  0  0  0  0  0  0  0  0
   12.1821    8.5670    1.7388 C   0  0  0  0  0  0  0  0  0  0  0  0
    6.4617    6.3756   -1.9470 C   0  0  0  0  0  0  0  0  0  0  0  0
    5.8190    5.4478   -2.5039 O   0  0  0  0  0  0  0  0  0  0  0  0
    6.6126    7.5401   -2.8238 N   0  0  0  0  0  0  0  0  0  0  0  0
    6.0802    7.5689   -4.1522 C   0  0  2  0  0  0  0  0  0  0  0  0
    7.1930    7.7364   -5.1992 C   0  0  0  0  0  0  0  0  0  0  0  0
    8.0948    6.6862   -5.1214 O   0  0  0  0  0  0  0  0  0  0  0  0
    5.2117    8.7979   -4.2956 C   0  0  0  0  0  0  0  0  0  0  0  0
    4.0404    8.8371   -3.3587 C   0  0  2  0  0  0  0  0  0  0  0  0
    3.1048    7.6532   -3.5801 C   0  0  0  0  0  0  0  0  0  0  0  0
    1.8922    8.1410   -2.8181 C   0  0  0  0  0  0  0  0  0  0  0  0
    1.8346    9.5223   -3.2435 N   0  0  0  0  0  0  0  0  0  0  0  0
    3.1265    9.9512   -3.7153 C   0  0  0  0  0  0  0  0  0  0  0  0
    3.4058   11.0359   -4.3001 O   0  0  0  0  0  0  0  0  0  0  0  0
  1  2  1  0
  2  3  1  0
  2  4  1  0
  5  4  1  1
  5  6  1  0
  6  7  1  0
  7  8  2  0
  7  9  1  0
  9 10  1  0
 10 11  1  0
 11 12  2  0
 12 13  1  0
 13 14  2  0
 14 15  1  0
 15 16  2  0
  5 17  1  0
 17 18  2  0
 17 19  1  0
 19 20  1  0
 20 21  1  6
 21 22  1  0
 20 23  1  0
 24 23  1  6
 24 25  1  0
 25 26  1  0
 26 27  1  0
 27 28  1  0
 28 29  2  0
 16 11  1  0
 28 24  1  0
M  END
>  <shape_align_shape_tanimoto>  (3) 
0.72091002556285166

>  <shape_align_color_tanimoto>  (3) 
0.22755846078061148

>  <metric>  (3) 
combo

>  <metric_score>  (3) 
0.474

>  <template_pid>  (3) 
4DCD

>  <template_shape_score>  (3) 
0.721

>  <template_color_score>  (3) 
0.228

>  <template_combo_score>  (3) 
0.474

$$$$
