1ORW_shape_pose
     RDKit          3D

 26 28  0  0  0  0  0  0  0  0999 V2000
   15.8935   33.9615   51.3228 N   0  0  0  0  0  0  0  0  0  0  0  0
   16.4055   32.9207   52.1447 C   0  0  0  0  0  0  0  0  0  0  0  0
   17.3762   32.2608   51.6930 O   0  0  0  0  0  0  0  0  0  0  0  0
   15.7847   32.6650   53.4708 C   0  0  2  0  0  0  0  0  0  0  0  0
   15.9593   33.9395   54.2758 C   0  0  0  0  0  0  0  0  0  0  0  0
   17.3926   34.0667   54.6673 C   0  0  0  0  0  0  0  0  0  0  0  0
   18.1437   35.1916   54.4333 C   0  0  0  0  0  0  0  0  0  0  0  0
   19.4585   35.1689   54.8501 C   0  0  0  0  0  0  0  0  0  0  0  0
   20.0167   34.0599   55.4832 C   0  0  0  0  0  0  0  0  0  0  0  0
   19.2560   32.9220   55.7195 C   0  0  0  0  0  0  0  0  0  0  0  0
   17.9430   32.9516   55.3004 C   0  0  0  0  0  0  0  0  0  0  0  0
   17.0083   31.8004   55.4895 C   0  0  0  0  0  0  0  0  0  0  0  0
   16.4343   31.5618   54.1557 N   0  0  0  0  0  0  0  0  0  0  0  0
   16.5060   30.2779   53.5336 C   0  0  0  0  0  0  0  0  0  0  0  0
   15.9999   30.1275   52.3921 O   0  0  0  0  0  0  0  0  0  0  0  0
   17.1814   29.2021   54.2907 C   0  0  0  0  0  0  0  0  0  0  0  0
   17.2042   27.8744   53.5866 C   0  0  2  0  0  0  0  0  0  0  0  0
   17.9002   28.0247   52.3209 N   0  0  0  0  0  0  0  0  0  0  0  0
   15.8395   27.3061   53.3910 C   0  0  0  0  0  0  0  0  0  0  0  0
   15.8854   25.9748   52.6862 C   0  0  0  0  0  0  0  0  0  0  0  0
   15.5530   25.8444   51.3548 C   0  0  0  0  0  0  0  0  0  0  0  0
   15.6027   24.6172   50.7284 C   0  0  0  0  0  0  0  0  0  0  0  0
   15.9932   23.4767   51.4358 C   0  0  0  0  0  0  0  0  0  0  0  0
   16.3268   23.6267   52.7850 C   0  0  0  0  0  0  0  0  0  0  0  0
   16.2793   24.8514   53.4178 C   0  0  0  0  0  0  0  0  0  0  0  0
   16.6000   25.0116   54.7257 F   0  0  0  0  0  0  0  0  0  0  0  0
  1  2  1  0
  2  3  2  0
  4  2  1  6
  4  5  1  0
  5  6  1  0
  6  7  2  0
  7  8  1  0
  8  9  2  0
  9 10  1  0
 10 11  2  0
 11 12  1  0
 12 13  1  0
 13 14  1  0
 14 15  2  0
 14 16  1  0
 16 17  1  0
 17 18  1  6
 17 19  1  0
 19 20  1  0
 20 21  2  0
 21 22  1  0
 22 23  2  0
 23 24  1  0
 24 25  2  0
 25 26  1  0
 13  4  1  0
 25 20  1  0
 11  6  1  0
M  CHG  1  18   1
M  END
>  <shape_align_shape_tanimoto>  (1) 
0.60953673674091324

>  <shape_align_color_tanimoto>  (1) 
0.05558542143401906

>  <metric>  (1) 
shape

>  <metric_score>  (1) 
0.610

>  <template_pid>  (1) 
1ORW

>  <template_shape_score>  (1) 
0.610

>  <template_color_score>  (1) 
0.056

>  <template_combo_score>  (1) 
0.333

$$$$
1ORW_color_pose
     RDKit          3D

 26 28  0  0  0  0  0  0  0  0999 V2000
   16.5236   29.0448   57.4351 N   0  0  0  0  0  0  0  0  0  0  0  0
   15.8361   29.4411   56.2293 C   0  0  0  0  0  0  0  0  0  0  0  0
   14.6240   29.1731   56.0333 O   0  0  0  0  0  0  0  0  0  0  0  0
   16.6744   30.1891   55.2429 C   0  0  2  0  0  0  0  0  0  0  0  0
   17.2073   31.3849   55.9696 C   0  0  0  0  0  0  0  0  0  0  0  0
   17.4529   32.4884   55.0290 C   0  0  0  0  0  0  0  0  0  0  0  0
   18.5803   33.2822   55.2433 C   0  0  0  0  0  0  0  0  0  0  0  0
   18.8592   34.3590   54.3924 C   0  0  0  0  0  0  0  0  0  0  0  0
   18.0057   34.6376   53.3276 C   0  0  0  0  0  0  0  0  0  0  0  0
   16.8959   33.8545   53.1179 C   0  0  0  0  0  0  0  0  0  0  0  0
   16.6481   32.8146   53.9583 C   0  0  0  0  0  0  0  0  0  0  0  0
   15.4547   31.8925   53.7860 C   0  0  0  0  0  0  0  0  0  0  0  0
   15.9345   30.5233   54.0546 N   0  0  0  0  0  0  0  0  0  0  0  0
   15.6504   29.5204   53.0801 C   0  0  0  0  0  0  0  0  0  0  0  0
   15.0158   29.8462   52.0455 O   0  0  0  0  0  0  0  0  0  0  0  0
   16.0618   28.1103   53.2172 C   0  0  0  0  0  0  0  0  0  0  0  0
   17.1818   27.6871   52.3158 C   0  0  2  0  0  0  0  0  0  0  0  0
   16.8396   27.8475   50.9268 N   0  0  0  0  0  0  0  0  0  0  0  0
   17.7444   26.3433   52.6403 C   0  0  0  0  0  0  0  0  0  0  0  0
   16.8260   25.2094   52.5778 C   0  0  0  0  0  0  0  0  0  0  0  0
   16.2801   24.7590   53.7950 C   0  0  0  0  0  0  0  0  0  0  0  0
   15.3798   23.6980   53.8046 C   0  0  0  0  0  0  0  0  0  0  0  0
   15.0172   23.0817   52.6227 C   0  0  0  0  0  0  0  0  0  0  0  0
   15.5380   23.5042   51.4216 C   0  0  0  0  0  0  0  0  0  0  0  0
   16.4331   24.5614   51.4248 C   0  0  0  0  0  0  0  0  0  0  0  0
   16.9335   24.9467   50.2372 F   0  0  0  0  0  0  0  0  0  0  0  0
  1  2  1  0
  2  3  2  0
  4  2  1  1
  4  5  1  0
  5  6  1  0
  6  7  2  0
  7  8  1  0
  8  9  2  0
  9 10  1  0
 10 11  2  0
 11 12  1  0
 12 13  1  0
 13 14  1  0
 14 15  2  0
 14 16  1  0
 16 17  1  0
 17 18  1  6
 17 19  1  0
 19 20  1  0
 20 21  2  0
 21 22  1  0
 22 23  2  0
 23 24  1  0
 24 25  2  0
 25 26  1  0
 13  4  1  0
 25 20  1  0
 11  6  1  0
M  CHG  1  18   1
M  END
>  <shape_align_shape_tanimoto>  (2) 
0.55878963162081363

>  <shape_align_color_tanimoto>  (2) 
0.12529632019800355

>  <metric>  (2) 
color

>  <metric_score>  (2) 
0.125

>  <template_pid>  (2) 
1ORW

>  <template_shape_score>  (2) 
0.559

>  <template_color_score>  (2) 
0.125

>  <template_combo_score>  (2) 
0.342

$$$$
1ORW_combo_pose
     RDKit          3D

 26 28  0  0  0  0  0  0  0  0999 V2000
   19.8884   33.4490   52.3522 N   0  0  0  0  0  0  0  0  0  0  0  0
   19.0921   33.1050   53.4860 C   0  0  0  0  0  0  0  0  0  0  0  0
   19.6050   32.7213   54.5687 O   0  0  0  0  0  0  0  0  0  0  0  0
   17.6167   33.2120   53.3564 C   0  0  2  0  0  0  0  0  0  0  0  0
   17.1799   34.6708   53.1618 C   0  0  0  0  0  0  0  0  0  0  0  0
   17.8779   35.4214   54.2521 C   0  0  0  0  0  0  0  0  0  0  0  0
   18.6924   36.5069   53.9978 C   0  0  0  0  0  0  0  0  0  0  0  0
   19.2885   37.1270   55.0807 C   0  0  0  0  0  0  0  0  0  0  0  0
   19.0682   36.6648   56.3778 C   0  0  0  0  0  0  0  0  0  0  0  0
   18.2491   35.5738   56.6292 C   0  0  0  0  0  0  0  0  0  0  0  0
   17.6602   34.9640   55.5390 C   0  0  0  0  0  0  0  0  0  0  0  0
   16.7571   33.7806   55.6710 C   0  0  0  0  0  0  0  0  0  0  0  0
   16.9834   32.8192   54.6098 N   0  0  0  0  0  0  0  0  0  0  0  0
   16.5583   31.4824   54.8505 C   0  0  0  0  0  0  0  0  0  0  0  0
   16.0188   31.2612   55.9739 O   0  0  0  0  0  0  0  0  0  0  0  0
   16.7315   30.3992   53.8501 C   0  0  0  0  0  0  0  0  0  0  0  0
   15.4537   30.1385   53.0797 C   0  0  2  0  0  0  0  0  0  0  0  0
   14.3795   29.7438   53.9506 N   0  0  0  0  0  0  0  0  0  0  0  0
   15.6416   29.1286   51.9928 C   0  0  0  0  0  0  0  0  0  0  0  0
   16.0920   27.8021   52.3927 C   0  0  0  0  0  0  0  0  0  0  0  0
   17.4648   27.5346   52.2954 C   0  0  0  0  0  0  0  0  0  0  0  0
   18.0057   26.3261   52.6699 C   0  0  0  0  0  0  0  0  0  0  0  0
   17.2164   25.3146   53.1620 C   0  0  0  0  0  0  0  0  0  0  0  0
   15.8660   25.5628   53.2626 C   0  0  0  0  0  0  0  0  0  0  0  0
   15.3181   26.7821   52.8847 C   0  0  0  0  0  0  0  0  0  0  0  0
   13.9858   26.9052   53.0008 F   0  0  0  0  0  0  0  0  0  0  0  0
  1  2  1  0
  2  3  2  0
  4  2  1  1
  4  5  1  0
  5  6  1  0
  6  7  2  0
  7  8  1  0
  8  9  2  0
  9 10  1  0
 10 11  2  0
 11 12  1  0
 12 13  1  0
 13 14  1  0
 14 15  2  0
 14 16  1  0
 16 17  1  0
 17 18  1  1
 17 19  1  0
 19 20  1  0
 20 21  2  0
 21 22  1  0
 22 23  2  0
 23 24  1  0
 24 25  2  0
 25 26  1  0
 13  4  1  0
 25 20  1  0
 11  6  1  0
M  CHG  1  18   1
M  END
>  <shape_align_shape_tanimoto>  (3) 
0.60628134765533448

>  <shape_align_color_tanimoto>  (3) 
0.10330491390318511

>  <metric>  (3) 
combo

>  <metric_score>  (3) 
0.355

>  <template_pid>  (3) 
1ORW

>  <template_shape_score>  (3) 
0.606

>  <template_color_score>  (3) 
0.103

>  <template_combo_score>  (3) 
0.355

$$$$
