5D1T_shape_pose
     RDKit          3D

 27 28  0  0  0  0  0  0  0  0999 V2000
   86.5082   46.7179  139.2238 C   0  0  0  0  0  0  0  0  0  0  0  0
   86.8164   45.2838  139.4370 C   0  0  0  0  0  0  0  0  0  0  0  0
   86.0542   44.3135  138.8060 C   0  0  0  0  0  0  0  0  0  0  0  0
   86.2976   42.9575  138.9693 C   0  0  0  0  0  0  0  0  0  0  0  0
   85.2755   41.8128  138.1268 S   0  0  0  0  0  0  0  0  0  0  0  0
   84.8443   42.4089  136.8139 O   0  0  0  0  0  0  0  0  0  0  0  0
   86.2028   40.6571  137.7713 O   0  0  0  0  0  0  0  0  0  0  0  0
   83.9168   41.3296  138.9828 N   0  0  0  0  0  0  0  0  0  0  0  0
   83.9600   39.9600  139.3236 C   0  0  0  0  0  0  0  0  0  0  0  0
   83.2151   39.0450  138.4337 C   0  0  0  0  0  0  0  0  0  0  0  0
   81.8633   38.8005  138.7097 C   0  0  0  0  0  0  0  0  0  0  0  0
   81.1039   37.9543  137.9299 C   0  0  0  0  0  0  0  0  0  0  0  0
   81.6466   37.3099  136.8397 C   0  0  0  0  0  0  0  0  0  0  0  0
   82.9751   37.5373  136.5516 C   0  0  0  0  0  0  0  0  0  0  0  0
   83.5681   36.8456  135.3767 C   0  0  0  0  0  0  0  0  0  0  0  0
   84.1015   35.5648  135.8592 N   0  0  0  0  0  0  0  0  0  0  0  0
   83.7319   38.3940  137.3467 C   0  0  0  0  0  0  0  0  0  0  0  0
   83.4402   42.1935  139.9838 C   0  0  2  0  0  0  0  0  0  0  0  0
   83.5843   41.5924  141.3622 C   0  0  0  0  0  0  0  0  0  0  0  0
   82.0165   42.5952  139.8184 C   0  0  0  0  0  0  0  0  0  0  0  0
   81.4471   43.3376  140.6778 O   0  0  0  0  0  0  0  0  0  0  0  0
   81.2166   42.1866  138.7155 N   0  0  0  0  0  0  0  0  0  0  0  0
   79.9197   42.5540  138.5686 O   0  0  0  0  0  0  0  0  0  0  0  0
   87.3362   42.5641  139.7897 C   0  0  0  0  0  0  0  0  0  0  0  0
   88.1021   43.5231  140.4234 C   0  0  0  0  0  0  0  0  0  0  0  0
   87.8615   44.8799  140.2623 C   0  0  0  0  0  0  0  0  0  0  0  0
   88.6304   45.7831  140.8971 F   0  0  0  0  0  0  0  0  0  0  0  0
  1  2  1  0
  2  3  2  0
  3  4  1  0
  4  5  1  0
  5  6  2  0
  5  7  2  0
  5  8  1  0
  8  9  1  0
  9 10  1  0
 10 11  2  0
 11 12  1  0
 12 13  2  0
 13 14  1  0
 14 15  1  0
 15 16  1  0
 14 17  2  0
  8 18  1  0
 18 19  1  1
 18 20  1  0
 20 21  2  0
 20 22  1  0
 22 23  1  0
  4 24  2  0
 24 25  1  0
 25 26  2  0
 26 27  1  0
 26  2  1  0
 17 10  1  0
M  CHG  1  16   1
M  END
>  <shape_align_shape_tanimoto>  (1) 
0.60845079771157895

>  <shape_align_color_tanimoto>  (1) 
0.042043072388177484

>  <metric>  (1) 
shape

>  <metric_score>  (1) 
0.608

>  <template_pid>  (1) 
5D1T

>  <template_shape_score>  (1) 
0.608

>  <template_color_score>  (1) 
0.042

>  <template_combo_score>  (1) 
0.325

$$$$
5D1T_color_pose
     RDKit          3D

 27 28  0  0  0  0  0  0  0  0999 V2000
   79.4379   42.6910  136.5493 C   0  0  0  0  0  0  0  0  0  0  0  0
   79.5602   41.4747  137.4203 C   0  0  0  0  0  0  0  0  0  0  0  0
   80.3715   40.4320  137.0309 C   0  0  0  0  0  0  0  0  0  0  0  0
   80.5333   39.2786  137.7832 C   0  0  0  0  0  0  0  0  0  0  0  0
   81.5286   37.9519  137.2688 S   0  0  0  0  0  0  0  0  0  0  0  0
   81.0428   36.7356  138.0534 O   0  0  0  0  0  0  0  0  0  0  0  0
   81.1561   37.6599  135.8383 O   0  0  0  0  0  0  0  0  0  0  0  0
   83.1388   38.2165  137.5262 N   0  0  0  0  0  0  0  0  0  0  0  0
   83.6958   38.4170  138.7805 C   0  0  0  0  0  0  0  0  0  0  0  0
   83.8951   39.8533  139.0706 C   0  0  0  0  0  0  0  0  0  0  0  0
   83.0390   40.6536  139.7571 C   0  0  0  0  0  0  0  0  0  0  0  0
   83.2716   42.0089  139.9903 C   0  0  0  0  0  0  0  0  0  0  0  0
   84.4212   42.6023  139.5144 C   0  0  0  0  0  0  0  0  0  0  0  0
   85.3078   41.8127  138.8147 C   0  0  0  0  0  0  0  0  0  0  0  0
   86.5441   42.4582  138.3052 C   0  0  0  0  0  0  0  0  0  0  0  0
   87.5788   42.3516  139.3106 N   0  0  0  0  0  0  0  0  0  0  0  0
   85.0619   40.4704  138.5920 C   0  0  0  0  0  0  0  0  0  0  0  0
   84.0383   37.8292  136.4750 C   0  0  2  0  0  0  0  0  0  0  0  0
   83.7568   38.7215  135.2855 C   0  0  0  0  0  0  0  0  0  0  0  0
   83.8947   36.3872  136.1131 C   0  0  0  0  0  0  0  0  0  0  0  0
   83.0528   35.6633  136.7126 O   0  0  0  0  0  0  0  0  0  0  0  0
   84.7390   35.8900  135.0813 N   0  0  0  0  0  0  0  0  0  0  0  0
   84.6647   34.5777  134.6948 O   0  0  0  0  0  0  0  0  0  0  0  0
   79.8072   39.2470  138.9785 C   0  0  0  0  0  0  0  0  0  0  0  0
   78.9952   40.2904  139.3684 C   0  0  0  0  0  0  0  0  0  0  0  0
   78.8617   41.4215  138.5904 C   0  0  0  0  0  0  0  0  0  0  0  0
   78.0801   42.4676  138.9289 F   0  0  0  0  0  0  0  0  0  0  0  0
  1  2  1  0
  2  3  2  0
  3  4  1  0
  4  5  1  0
  5  6  2  0
  5  7  2  0
  5  8  1  0
  8  9  1  0
  9 10  1  0
 10 11  2  0
 11 12  1  0
 12 13  2  0
 13 14  1  0
 14 15  1  0
 15 16  1  0
 14 17  2  0
  8 18  1  0
 18 19  1  6
 18 20  1  0
 20 21  2  0
 20 22  1  0
 22 23  1  0
  4 24  2  0
 24 25  1  0
 25 26  2  0
 26 27  1  0
 26  2  1  0
 17 10  1  0
M  CHG  1  16   1
M  END
>  <shape_align_shape_tanimoto>  (2) 
0.47434565199700074

>  <shape_align_color_tanimoto>  (2) 
0.081518843964301646

>  <metric>  (2) 
color

>  <metric_score>  (2) 
0.082

>  <template_pid>  (2) 
5D1T

>  <template_shape_score>  (2) 
0.474

>  <template_color_score>  (2) 
0.082

>  <template_combo_score>  (2) 
0.278

$$$$
5D1T_combo_pose
     RDKit          3D

 27 28  0  0  0  0  0  0  0  0999 V2000
   86.5082   46.7179  139.2238 C   0  0  0  0  0  0  0  0  0  0  0  0
   86.8164   45.2838  139.4370 C   0  0  0  0  0  0  0  0  0  0  0  0
   86.0542   44.3135  138.8060 C   0  0  0  0  0  0  0  0  0  0  0  0
   86.2976   42.9575  138.9693 C   0  0  0  0  0  0  0  0  0  0  0  0
   85.2755   41.8128  138.1268 S   0  0  0  0  0  0  0  0  0  0  0  0
   84.8443   42.4089  136.8139 O   0  0  0  0  0  0  0  0  0  0  0  0
   86.2028   40.6571  137.7713 O   0  0  0  0  0  0  0  0  0  0  0  0
   83.9168   41.3296  138.9828 N   0  0  0  0  0  0  0  0  0  0  0  0
   83.9600   39.9600  139.3236 C   0  0  0  0  0  0  0  0  0  0  0  0
   83.2151   39.0450  138.4337 C   0  0  0  0  0  0  0  0  0  0  0  0
   81.8633   38.8005  138.7097 C   0  0  0  0  0  0  0  0  0  0  0  0
   81.1039   37.9543  137.9299 C   0  0  0  0  0  0  0  0  0  0  0  0
   81.6466   37.3099  136.8397 C   0  0  0  0  0  0  0  0  0  0  0  0
   82.9751   37.5373  136.5516 C   0  0  0  0  0  0  0  0  0  0  0  0
   83.5681   36.8456  135.3767 C   0  0  0  0  0  0  0  0  0  0  0  0
   84.1015   35.5648  135.8592 N   0  0  0  0  0  0  0  0  0  0  0  0
   83.7319   38.3940  137.3467 C   0  0  0  0  0  0  0  0  0  0  0  0
   83.4402   42.1935  139.9838 C   0  0  2  0  0  0  0  0  0  0  0  0
   83.5843   41.5924  141.3622 C   0  0  0  0  0  0  0  0  0  0  0  0
   82.0165   42.5952  139.8184 C   0  0  0  0  0  0  0  0  0  0  0  0
   81.4471   43.3376  140.6778 O   0  0  0  0  0  0  0  0  0  0  0  0
   81.2166   42.1866  138.7155 N   0  0  0  0  0  0  0  0  0  0  0  0
   79.9197   42.5540  138.5686 O   0  0  0  0  0  0  0  0  0  0  0  0
   87.3362   42.5641  139.7897 C   0  0  0  0  0  0  0  0  0  0  0  0
   88.1021   43.5231  140.4234 C   0  0  0  0  0  0  0  0  0  0  0  0
   87.8615   44.8799  140.2623 C   0  0  0  0  0  0  0  0  0  0  0  0
   88.6304   45.7831  140.8971 F   0  0  0  0  0  0  0  0  0  0  0  0
  1  2  1  0
  2  3  2  0
  3  4  1  0
  4  5  1  0
  5  6  2  0
  5  7  2  0
  5  8  1  0
  8  9  1  0
  9 10  1  0
 10 11  2  0
 11 12  1  0
 12 13  2  0
 13 14  1  0
 14 15  1  0
 15 16  1  0
 14 17  2  0
  8 18  1  0
 18 19  1  1
 18 20  1  0
 20 21  2  0
 20 22  1  0
 22 23  1  0
  4 24  2  0
 24 25  1  0
 25 26  2  0
 26 27  1  0
 26  2  1  0
 17 10  1  0
M  CHG  1  16   1
M  END
>  <shape_align_shape_tanimoto>  (3) 
0.60845079771157895

>  <shape_align_color_tanimoto>  (3) 
0.042043072388177484

>  <metric>  (3) 
combo

>  <metric_score>  (3) 
0.325

>  <template_pid>  (3) 
5D1T

>  <template_shape_score>  (3) 
0.608

>  <template_color_score>  (3) 
0.042

>  <template_combo_score>  (3) 
0.325

$$$$
