6GGD_shape_pose
     RDKit          3D

 23 26  0  0  0  0  0  0  0  0999 V2000
   94.0638   92.5231  -42.0039 C   0  0  0  0  0  0  0  0  0  0  0  0
   92.5630   92.5209  -41.8587 C   0  0  0  0  0  0  0  0  0  0  0  0
   92.0207   93.5368  -42.7172 N   0  0  0  0  0  0  0  0  0  0  0  0
   91.7979   94.8218  -42.3866 C   0  0  0  0  0  0  0  0  0  0  0  0
   91.9876   95.5710  -41.2220 C   0  0  0  0  0  0  0  0  0  0  0  0
   91.6625   96.9113  -41.1632 C   0  0  0  0  0  0  0  0  0  0  0  0
   91.1379   97.5196  -42.2853 C   0  0  0  0  0  0  0  0  0  0  0  0
   90.7569   98.9597  -42.3227 C   0  0  0  0  0  0  0  0  0  0  0  0
   91.9179   99.7086  -42.7561 N   0  0  0  0  0  0  0  0  0  0  0  0
   91.8150  101.1239  -42.5097 C   0  0  0  0  0  0  0  0  0  0  0  0
   90.9289   96.8115  -43.4764 C   0  0  0  0  0  0  0  0  0  0  0  0
   91.2703   95.4713  -43.4855 C   0  0  0  0  0  0  0  0  0  0  0  0
   91.1800   94.5347  -44.4976 C   0  0  0  0  0  0  0  0  0  0  0  0
   90.7277   94.6259  -45.8087 C   0  0  0  0  0  0  0  0  0  0  0  0
   90.7329   93.5305  -46.6576 C   0  0  0  0  0  0  0  0  0  0  0  0
   91.2141   92.3183  -46.1435 C   0  0  0  0  0  0  0  0  0  0  0  0
   91.2027   91.1960  -47.0740 C   0  0  0  0  0  0  0  0  0  0  0  0
   91.3816   91.2995  -48.4573 C   0  0  0  0  0  0  0  0  0  0  0  0
   91.3097   90.0716  -48.9739 N   0  0  0  0  0  0  0  0  0  0  0  0
   91.1007   89.2314  -48.0073 O   0  0  0  0  0  0  0  0  0  0  0  0
   91.0280   89.8534  -46.8447 C   0  0  0  0  0  0  0  0  0  0  0  0
   91.6656   92.2173  -44.8421 C   0  0  0  0  0  0  0  0  0  0  0  0
   91.6503   93.3284  -44.0114 C   0  0  0  0  0  0  0  0  0  0  0  0
  1  2  1  0
  2  3  1  0
  3  4  1  0
  4  5  2  0
  5  6  1  0
  6  7  2  0
  7  8  1  0
  8  9  1  0
  9 10  1  0
  7 11  1  0
 11 12  2  0
 12 13  1  0
 13 14  2  0
 14 15  1  0
 15 16  2  0
 16 17  1  0
 17 18  1  0
 18 19  2  0
 19 20  1  0
 20 21  1  0
 16 22  1  0
 22 23  2  0
 23  3  1  0
 12  4  1  0
 23 13  1  0
 21 17  2  0
M  CHG  1   9   1
M  END
>  <shape_align_shape_tanimoto>  (1) 
0.76917963304077075

>  <shape_align_color_tanimoto>  (1) 
0.10861333802329615

>  <metric>  (1) 
shape

>  <metric_score>  (1) 
0.769

>  <template_pid>  (1) 
6GGD

>  <template_shape_score>  (1) 
0.769

>  <template_color_score>  (1) 
0.109

>  <template_combo_score>  (1) 
0.439

$$$$
6GGD_color_pose
     RDKit          3D

 23 26  0  0  0  0  0  0  0  0999 V2000
   90.0845   92.2335  -45.2843 C   0  0  0  0  0  0  0  0  0  0  0  0
   91.3435   93.0313  -45.4359 C   0  0  0  0  0  0  0  0  0  0  0  0
   91.6452   93.8302  -44.2634 N   0  0  0  0  0  0  0  0  0  0  0  0
   91.2584   95.0934  -43.9977 C   0  0  0  0  0  0  0  0  0  0  0  0
   90.4828   96.0090  -44.7146 C   0  0  0  0  0  0  0  0  0  0  0  0
   90.2228   97.2701  -44.2168 C   0  0  0  0  0  0  0  0  0  0  0  0
   90.7281   97.6541  -42.9908 C   0  0  0  0  0  0  0  0  0  0  0  0
   90.4753   99.0084  -42.4073 C   0  0  0  0  0  0  0  0  0  0  0  0
   91.5156   99.9477  -42.8215 N   0  0  0  0  0  0  0  0  0  0  0  0
   92.0441  100.5265  -41.5921 C   0  0  0  0  0  0  0  0  0  0  0  0
   91.4979   96.7677  -42.2621 C   0  0  0  0  0  0  0  0  0  0  0  0
   91.7508   95.5035  -42.7754 C   0  0  0  0  0  0  0  0  0  0  0  0
   92.4673   94.4266  -42.2909 C   0  0  0  0  0  0  0  0  0  0  0  0
   93.1795   94.2580  -41.1118 C   0  0  0  0  0  0  0  0  0  0  0  0
   93.8352   93.0575  -40.8348 C   0  0  0  0  0  0  0  0  0  0  0  0
   93.7599   92.0347  -41.7643 C   0  0  0  0  0  0  0  0  0  0  0  0
   94.4126   90.7720  -41.5402 C   0  0  0  0  0  0  0  0  0  0  0  0
   94.9644   89.8705  -42.4373 C   0  0  0  0  0  0  0  0  0  0  0  0
   95.4556   88.8398  -41.7406 N   0  0  0  0  0  0  0  0  0  0  0  0
   95.2330   89.0685  -40.4943 O   0  0  0  0  0  0  0  0  0  0  0  0
   94.6189   90.1953  -40.3063 C   0  0  0  0  0  0  0  0  0  0  0  0
   93.0473   92.2019  -42.9452 C   0  0  0  0  0  0  0  0  0  0  0  0
   92.3964   93.4025  -43.2133 C   0  0  0  0  0  0  0  0  0  0  0  0
  1  2  1  0
  2  3  1  0
  3  4  1  0
  4  5  2  0
  5  6  1  0
  6  7  2  0
  7  8  1  0
  8  9  1  0
  9 10  1  0
  7 11  1  0
 11 12  2  0
 12 13  1  0
 13 14  2  0
 14 15  1  0
 15 16  2  0
 16 17  1  0
 17 18  1  0
 18 19  2  0
 19 20  1  0
 20 21  1  0
 16 22  1  0
 22 23  2  0
 23  3  1  0
 12  4  1  0
 23 13  1  0
 21 17  2  0
M  CHG  1   9   1
M  END
>  <shape_align_shape_tanimoto>  (2) 
0.64600362882684592

>  <shape_align_color_tanimoto>  (2) 
0.13388227662650284

>  <metric>  (2) 
color

>  <metric_score>  (2) 
0.134

>  <template_pid>  (2) 
6GGD

>  <template_shape_score>  (2) 
0.646

>  <template_color_score>  (2) 
0.134

>  <template_combo_score>  (2) 
0.390

$$$$
6GGD_combo_pose
     RDKit          3D

 23 26  0  0  0  0  0  0  0  0999 V2000
   94.0451   92.5507  -41.9089 C   0  0  0  0  0  0  0  0  0  0  0  0
   92.5504   92.6536  -41.8518 C   0  0  0  0  0  0  0  0  0  0  0  0
   92.0010   93.6809  -42.6912 N   0  0  0  0  0  0  0  0  0  0  0  0
   91.7643   94.9840  -42.3593 C   0  0  0  0  0  0  0  0  0  0  0  0
   91.9735   95.6795  -41.1621 C   0  0  0  0  0  0  0  0  0  0  0  0
   91.6333   97.0246  -41.1112 C   0  0  0  0  0  0  0  0  0  0  0  0
   91.0948   97.6733  -42.2249 C   0  0  0  0  0  0  0  0  0  0  0  0
   90.7407   99.1156  -42.1362 C   0  0  0  0  0  0  0  0  0  0  0  0
   91.8818   99.9354  -42.5162 N   0  0  0  0  0  0  0  0  0  0  0  0
   92.4037   99.5438  -43.8118 C   0  0  0  0  0  0  0  0  0  0  0  0
   90.8907   96.9725  -43.4101 C   0  0  0  0  0  0  0  0  0  0  0  0
   91.2310   95.6319  -43.4569 C   0  0  0  0  0  0  0  0  0  0  0  0
   91.1443   94.6934  -44.4773 C   0  0  0  0  0  0  0  0  0  0  0  0
   90.6802   94.8298  -45.7768 C   0  0  0  0  0  0  0  0  0  0  0  0
   90.7156   93.6938  -46.5853 C   0  0  0  0  0  0  0  0  0  0  0  0
   91.1945   92.4933  -46.0983 C   0  0  0  0  0  0  0  0  0  0  0  0
   91.2097   91.3338  -46.9859 C   0  0  0  0  0  0  0  0  0  0  0  0
   90.3422   91.0129  -48.0094 C   0  0  0  0  0  0  0  0  0  0  0  0
   90.7860   89.8497  -48.5191 N   0  0  0  0  0  0  0  0  0  0  0  0
   91.8477   89.4255  -47.9024 O   0  0  0  0  0  0  0  0  0  0  0  0
   92.1349   90.3099  -46.9578 C   0  0  0  0  0  0  0  0  0  0  0  0
   91.6561   92.3664  -44.7985 C   0  0  0  0  0  0  0  0  0  0  0  0
   91.6257   93.4904  -43.9848 C   0  0  0  0  0  0  0  0  0  0  0  0
  1  2  1  0
  2  3  1  0
  3  4  1  0
  4  5  2  0
  5  6  1  0
  6  7  2  0
  7  8  1  0
  8  9  1  0
  9 10  1  0
  7 11  1  0
 11 12  2  0
 12 13  1  0
 13 14  2  0
 14 15  1  0
 15 16  2  0
 16 17  1  0
 17 18  1  0
 18 19  2  0
 19 20  1  0
 20 21  1  0
 16 22  1  0
 22 23  2  0
 23  3  1  0
 12  4  1  0
 23 13  1  0
 21 17  2  0
M  CHG  1   9   1
M  END
>  <shape_align_shape_tanimoto>  (3) 
0.76791752083526499

>  <shape_align_color_tanimoto>  (3) 
0.11637746156030292

>  <metric>  (3) 
combo

>  <metric_score>  (3) 
0.442

>  <template_pid>  (3) 
6GGD

>  <template_shape_score>  (3) 
0.768

>  <template_color_score>  (3) 
0.116

>  <template_combo_score>  (3) 
0.442

$$$$
