6HOQ_shape_pose
     RDKit          3D

 14 14  0  0  0  0  0  0  0  0999 V2000
 -137.7040 -168.6714  362.3396 C   0  0  0  0  0  0  0  0  0  0  0  0
 -137.3909 -169.9601  362.7674 O   0  0  0  0  0  0  0  0  0  0  0  0
 -138.2583 -171.0420  362.7418 C   0  0  0  0  0  0  0  0  0  0  0  0
 -139.5457 -170.8996  362.2680 C   0  0  0  0  0  0  0  0  0  0  0  0
 -140.4401 -171.9722  362.2309 C   0  0  0  0  0  0  0  0  0  0  0  0
 -141.7951 -171.7918  361.7246 C   0  0  0  0  0  0  0  0  0  0  0  0
 -142.6943 -172.7497  361.6572 C   0  0  0  0  0  0  0  0  0  0  0  0
 -144.0252 -172.4646  361.1330 C   0  0  0  0  0  0  0  0  0  0  0  0
 -144.2906 -171.3061  360.7540 O   0  0  0  0  0  0  0  0  0  0  0  0
 -144.9866 -173.4638  361.0547 O   0  0  0  0  0  0  0  0  0  0  0  0
 -139.9529 -173.1725  362.6959 C   0  0  0  0  0  0  0  0  0  0  0  0
 -138.6638 -173.3335  363.1749 C   0  0  0  0  0  0  0  0  0  0  0  0
 -137.7983 -172.2588  363.2017 C   0  0  0  0  0  0  0  0  0  0  0  0
 -136.5120 -172.4528  363.6879 O   0  0  0  0  0  0  0  0  0  0  0  0
  1  2  1  0
  2  3  1  0
  3  4  2  0
  4  5  1  0
  5  6  1  0
  6  7  2  0
  7  8  1  0
  8  9  2  0
  8 10  1  0
  5 11  2  0
 11 12  1  0
 12 13  2  0
 13 14  1  0
 13  3  1  0
M  CHG  1  10  -1
M  END
>  <shape_align_shape_tanimoto>  (1) 
0.34137989849854472

>  <shape_align_color_tanimoto>  (1) 
0.071341195639982452

>  <metric>  (1) 
shape

>  <metric_score>  (1) 
0.341

>  <template_pid>  (1) 
6HOQ

>  <template_shape_score>  (1) 
0.341

>  <template_color_score>  (1) 
0.071

>  <template_combo_score>  (1) 
0.206

$$$$
6HOQ_color_pose
     RDKit          3D

 14 14  0  0  0  0  0  0  0  0999 V2000
 -138.7798 -168.5934  362.9610 C   0  0  0  0  0  0  0  0  0  0  0  0
 -138.1654 -169.8643  363.0655 O   0  0  0  0  0  0  0  0  0  0  0  0
 -138.8944 -171.0007  362.7728 C   0  0  0  0  0  0  0  0  0  0  0  0
 -140.2138 -170.9160  362.3799 C   0  0  0  0  0  0  0  0  0  0  0  0
 -140.9730 -172.0491  362.0784 C   0  0  0  0  0  0  0  0  0  0  0  0
 -142.3644 -171.9261  361.6661 C   0  0  0  0  0  0  0  0  0  0  0  0
 -143.1432 -172.9402  361.3663 C   0  0  0  0  0  0  0  0  0  0  0  0
 -144.5378 -172.7065  360.9601 C   0  0  0  0  0  0  0  0  0  0  0  0
 -144.9591 -171.5201  360.9086 O   0  0  0  0  0  0  0  0  0  0  0  0
 -145.3438 -173.8007  360.6470 O   0  0  0  0  0  0  0  0  0  0  0  0
 -140.3174 -173.2553  362.1994 C   0  0  0  0  0  0  0  0  0  0  0  0
 -138.9929 -173.3588  362.5926 C   0  0  0  0  0  0  0  0  0  0  0  0
 -138.2653 -172.2237  362.8848 C   0  0  0  0  0  0  0  0  0  0  0  0
 -136.9368 -172.2958  363.2813 O   0  0  0  0  0  0  0  0  0  0  0  0
  1  2  1  0
  2  3  1  0
  3  4  2  0
  4  5  1  0
  5  6  1  0
  6  7  2  0
  7  8  1  0
  8  9  2  0
  8 10  1  0
  5 11  2  0
 11 12  1  0
 12 13  2  0
 13 14  1  0
 13  3  1  0
M  CHG  1  10  -1
M  END
>  <shape_align_shape_tanimoto>  (2) 
0.31152801322094292

>  <shape_align_color_tanimoto>  (2) 
0.072291927513957507

>  <metric>  (2) 
color

>  <metric_score>  (2) 
0.072

>  <template_pid>  (2) 
6HOQ

>  <template_shape_score>  (2) 
0.312

>  <template_color_score>  (2) 
0.072

>  <template_combo_score>  (2) 
0.192

$$$$
6HOQ_combo_pose
     RDKit          3D

 14 14  0  0  0  0  0  0  0  0999 V2000
 -137.7040 -168.6714  362.3396 C   0  0  0  0  0  0  0  0  0  0  0  0
 -137.3909 -169.9601  362.7674 O   0  0  0  0  0  0  0  0  0  0  0  0
 -138.2583 -171.0420  362.7418 C   0  0  0  0  0  0  0  0  0  0  0  0
 -139.5457 -170.8996  362.2680 C   0  0  0  0  0  0  0  0  0  0  0  0
 -140.4401 -171.9722  362.2309 C   0  0  0  0  0  0  0  0  0  0  0  0
 -141.7951 -171.7918  361.7246 C   0  0  0  0  0  0  0  0  0  0  0  0
 -142.6943 -172.7497  361.6572 C   0  0  0  0  0  0  0  0  0  0  0  0
 -144.0252 -172.4646  361.1330 C   0  0  0  0  0  0  0  0  0  0  0  0
 -144.2906 -171.3061  360.7540 O   0  0  0  0  0  0  0  0  0  0  0  0
 -144.9866 -173.4638  361.0547 O   0  0  0  0  0  0  0  0  0  0  0  0
 -139.9529 -173.1725  362.6959 C   0  0  0  0  0  0  0  0  0  0  0  0
 -138.6638 -173.3335  363.1749 C   0  0  0  0  0  0  0  0  0  0  0  0
 -137.7983 -172.2588  363.2017 C   0  0  0  0  0  0  0  0  0  0  0  0
 -136.5120 -172.4528  363.6879 O   0  0  0  0  0  0  0  0  0  0  0  0
  1  2  1  0
  2  3  1  0
  3  4  2  0
  4  5  1  0
  5  6  1  0
  6  7  2  0
  7  8  1  0
  8  9  2  0
  8 10  1  0
  5 11  2  0
 11 12  1  0
 12 13  2  0
 13 14  1  0
 13  3  1  0
M  CHG  1  10  -1
M  END
>  <shape_align_shape_tanimoto>  (3) 
0.34137989849854472

>  <shape_align_color_tanimoto>  (3) 
0.071341195639982452

>  <metric>  (3) 
combo

>  <metric_score>  (3) 
0.206

>  <template_pid>  (3) 
6HOQ

>  <template_shape_score>  (3) 
0.341

>  <template_color_score>  (3) 
0.071

>  <template_combo_score>  (3) 
0.206

$$$$
