6QTS_shape_pose
     RDKit          3D

 58 59  0  0  0  0  0  0  0  0999 V2000
   -7.6187   -2.4508  -21.7315 C   0  0  0  0  0  0  0  0  0  0  0  0
   -6.4958   -3.4424  -21.3884 C   0  0  0  0  0  0  0  0  0  0  0  0
   -6.7759   -4.0390  -20.0672 C   0  0  0  0  0  0  0  0  0  0  0  0
   -5.1678   -2.8728  -21.6722 C   0  0  2  0  0  0  0  0  0  0  0  0
   -5.1021   -2.5556  -23.1276 N   0  0  0  0  0  0  0  0  0  0  0  0
   -4.0020   -1.8074  -23.6434 C   0  0  0  0  0  0  0  0  0  0  0  0
   -3.1064   -1.4772  -22.8272 O   0  0  0  0  0  0  0  0  0  0  0  0
   -3.9142   -1.4288  -25.0999 C   0  0  2  0  0  0  0  0  0  0  0  0
   -4.5430   -2.4404  -25.9717 C   0  0  0  0  0  0  0  0  0  0  0  0
   -2.5555   -1.1125  -25.4264 N   0  0  0  0  0  0  0  0  0  0  0  0
   -1.9124    0.1470  -25.3216 C   0  0  0  0  0  0  0  0  0  0  0  0
   -2.5862    1.0922  -24.8625 O   0  0  0  0  0  0  0  0  0  0  0  0
   -0.5073    0.2094  -25.7604 C   0  0  2  0  0  0  0  0  0  0  0  0
    0.2275    1.4589  -25.6872 C   0  0  0  0  0  0  0  0  0  0  0  0
    0.3561    1.9557  -24.3016 C   0  0  0  0  0  0  0  0  0  0  0  0
   -0.4433    2.8595  -23.6815 C   0  0  0  0  0  0  0  0  0  0  0  0
   -0.2112    3.2381  -22.3829 C   0  0  0  0  0  0  0  0  0  0  0  0
    0.8549    2.6963  -21.6811 C   0  0  0  0  0  0  0  0  0  0  0  0
    1.1431    3.0405  -20.3600 O   0  0  0  0  0  0  0  0  0  0  0  0
    1.6819    1.7813  -22.2762 C   0  0  0  0  0  0  0  0  0  0  0  0
    1.4261    1.4236  -23.5679 C   0  0  0  0  0  0  0  0  0  0  0  0
   -0.1782   -0.6979  -26.8625 N   0  0  0  0  0  0  0  0  0  0  0  0
   -1.1011   -0.9974  -27.9120 C   0  0  0  0  0  0  0  0  0  0  0  0
   -2.2561   -0.4459  -27.9231 O   0  0  0  0  0  0  0  0  0  0  0  0
   -0.8226   -1.9177  -29.0243 C   0  0  1  0  0  0  0  0  0  0  0  0
   -0.5468   -1.1784  -30.2527 N   0  0  0  0  0  0  0  0  0  0  0  0
    0.1811   -2.9967  -28.7638 C   0  0  0  0  0  0  0  0  0  0  0  0
   -0.3129   -3.8726  -27.6445 C   0  0  0  0  0  0  0  0  0  0  0  0
    0.6154   -5.0200  -27.3168 C   0  0  0  0  0  0  0  0  0  0  0  0
    0.1587   -5.8622  -26.2433 N   0  0  0  0  0  0  0  0  0  0  0  0
   -0.9813   -6.6821  -26.2635 C   0  0  0  0  0  0  0  0  0  0  0  0
   -1.2467   -7.4295  -25.0463 N   0  0  0  0  0  0  0  0  0  0  0  0
   -1.7885   -6.8060  -27.2573 N   0  0  0  0  0  0  0  0  0  0  0  0
   -3.9836   -3.7393  -21.3439 C   0  0  0  0  0  0  0  0  0  0  0  0
   -3.2321   -4.1795  -22.2579 O   0  0  0  0  0  0  0  0  0  0  0  0
   -3.7654   -4.0128  -19.9690 N   0  0  0  0  0  0  0  0  0  0  0  0
   -2.6392   -4.8074  -19.4711 C   0  0  2  0  0  0  0  0  0  0  0  0
   -3.0563   -6.0175  -18.7385 C   0  0  0  0  0  0  0  0  0  0  0  0
   -4.2522   -6.3185  -18.5049 O   0  0  0  0  0  0  0  0  0  0  0  0
   -2.0440   -6.9235  -18.2486 N   0  0  0  0  0  0  0  0  0  0  0  0
   -0.6106   -6.8533  -18.4133 C   0  0  0  0  0  0  0  0  0  0  0  0
   -0.1312   -8.3030  -18.5519 C   0  0  0  0  0  0  0  0  0  0  0  0
   -1.1655   -9.0691  -17.7824 C   0  0  0  0  0  0  0  0  0  0  0  0
   -2.2596   -8.1172  -17.4443 C   0  0  1  0  0  0  0  0  0  0  0  0
   -2.0890   -7.7584  -15.9744 C   0  0  0  0  0  0  0  0  0  0  0  0
   -1.8261   -6.5483  -15.7841 O   0  0  0  0  0  0  0  0  0  0  0  0
   -2.2338   -8.7564  -15.0172 N   0  0  0  0  0  0  0  0  0  0  0  0
   -2.1289   -8.8037  -13.6104 C   0  0  1  0  0  0  0  0  0  0  0  0
   -2.2950   -7.4882  -12.8596 C   0  0  0  0  0  0  0  0  0  0  0  0
   -1.1352   -6.6100  -13.2014 C   0  0  0  0  0  0  0  0  0  0  0  0
   -0.0523   -7.1347  -13.6707 O   0  0  0  0  0  0  0  0  0  0  0  0
   -1.2217   -5.2239  -13.0132 O   0  0  0  0  0  0  0  0  0  0  0  0
   -2.9491   -9.8386  -13.0250 C   0  0  0  0  0  0  0  0  0  0  0  0
   -2.7144  -11.0615  -13.1496 O   0  0  0  0  0  0  0  0  0  0  0  0
   -4.0763   -9.4989  -12.2716 O   0  0  0  0  0  0  0  0  0  0  0  0
   -1.8889   -3.8968  -18.4695 C   0  0  0  0  0  0  0  0  0  0  0  0
   -1.4581   -2.6790  -19.2640 C   0  0  0  0  0  0  0  0  0  0  0  0
   -2.8111   -3.4916  -17.3286 C   0  0  0  0  0  0  0  0  0  0  0  0
  1  2  1  0
  2  3  1  0
  2  4  1  0
  4  5  1  6
  5  6  1  0
  6  7  2  0
  6  8  1  0
  8  9  1  6
  8 10  1  0
 10 11  1  0
 11 12  2  0
 11 13  1  0
 13 14  1  6
 14 15  1  0
 15 16  2  0
 16 17  1  0
 17 18  2  0
 18 19  1  0
 18 20  1  0
 20 21  2  0
 13 22  1  0
 22 23  1  0
 23 24  2  0
 23 25  1  0
 25 26  1  6
 25 27  1  0
 27 28  1  0
 28 29  1  0
 29 30  1  0
 30 31  1  0
 31 32  1  0
 31 33  2  0
  4 34  1  0
 34 35  2  0
 34 36  1  0
 37 36  1  1
 37 38  1  0
 38 39  2  0
 38 40  1  0
 40 41  1  0
 41 42  1  0
 42 43  1  0
 43 44  1  0
 44 45  1  1
 45 46  2  0
 45 47  1  0
 47 48  1  0
 48 49  1  1
 49 50  1  0
 50 51  2  0
 50 52  1  0
 48 53  1  0
 53 54  2  0
 53 55  1  0
 37 56  1  0
 56 57  1  0
 56 58  1  0
 21 15  1  0
 44 40  1  0
M  CHG  4  26   1  33   1  52  -1  55  -1
M  END
>  <shape_align_shape_tanimoto>  (1) 
0.43069852575785095

>  <shape_align_color_tanimoto>  (1) 
0.049049078875188237

>  <metric>  (1) 
shape

>  <metric_score>  (1) 
0.431

>  <template_pid>  (1) 
6QTS

>  <template_shape_score>  (1) 
0.431

>  <template_color_score>  (1) 
0.049

>  <template_combo_score>  (1) 
0.240

$$$$
6QTS_color_pose
     RDKit          3D

 58 59  0  0  0  0  0  0  0  0999 V2000
   -7.6187   -2.4508  -21.7315 C   0  0  0  0  0  0  0  0  0  0  0  0
   -6.4958   -3.4424  -21.3884 C   0  0  0  0  0  0  0  0  0  0  0  0
   -6.7759   -4.0390  -20.0672 C   0  0  0  0  0  0  0  0  0  0  0  0
   -5.1678   -2.8728  -21.6722 C   0  0  2  0  0  0  0  0  0  0  0  0
   -5.1021   -2.5556  -23.1276 N   0  0  0  0  0  0  0  0  0  0  0  0
   -4.0020   -1.8074  -23.6434 C   0  0  0  0  0  0  0  0  0  0  0  0
   -3.1064   -1.4772  -22.8272 O   0  0  0  0  0  0  0  0  0  0  0  0
   -3.9142   -1.4288  -25.0999 C   0  0  2  0  0  0  0  0  0  0  0  0
   -4.5430   -2.4404  -25.9717 C   0  0  0  0  0  0  0  0  0  0  0  0
   -2.5555   -1.1125  -25.4264 N   0  0  0  0  0  0  0  0  0  0  0  0
   -1.9124    0.1470  -25.3216 C   0  0  0  0  0  0  0  0  0  0  0  0
   -2.5862    1.0922  -24.8625 O   0  0  0  0  0  0  0  0  0  0  0  0
   -0.5073    0.2094  -25.7604 C   0  0  2  0  0  0  0  0  0  0  0  0
    0.2275    1.4589  -25.6872 C   0  0  0  0  0  0  0  0  0  0  0  0
    0.3561    1.9557  -24.3016 C   0  0  0  0  0  0  0  0  0  0  0  0
   -0.4433    2.8595  -23.6815 C   0  0  0  0  0  0  0  0  0  0  0  0
   -0.2112    3.2381  -22.3829 C   0  0  0  0  0  0  0  0  0  0  0  0
    0.8549    2.6963  -21.6811 C   0  0  0  0  0  0  0  0  0  0  0  0
    1.1431    3.0405  -20.3600 O   0  0  0  0  0  0  0  0  0  0  0  0
    1.6819    1.7813  -22.2762 C   0  0  0  0  0  0  0  0  0  0  0  0
    1.4261    1.4236  -23.5679 C   0  0  0  0  0  0  0  0  0  0  0  0
   -0.1782   -0.6979  -26.8625 N   0  0  0  0  0  0  0  0  0  0  0  0
   -1.1011   -0.9974  -27.9120 C   0  0  0  0  0  0  0  0  0  0  0  0
   -2.2561   -0.4459  -27.9231 O   0  0  0  0  0  0  0  0  0  0  0  0
   -0.8226   -1.9177  -29.0243 C   0  0  1  0  0  0  0  0  0  0  0  0
   -0.5468   -1.1784  -30.2527 N   0  0  0  0  0  0  0  0  0  0  0  0
    0.1811   -2.9967  -28.7638 C   0  0  0  0  0  0  0  0  0  0  0  0
   -0.3129   -3.8726  -27.6445 C   0  0  0  0  0  0  0  0  0  0  0  0
    0.6154   -5.0200  -27.3168 C   0  0  0  0  0  0  0  0  0  0  0  0
    0.1587   -5.8622  -26.2433 N   0  0  0  0  0  0  0  0  0  0  0  0
   -0.9813   -6.6821  -26.2635 C   0  0  0  0  0  0  0  0  0  0  0  0
   -1.2467   -7.4295  -25.0463 N   0  0  0  0  0  0  0  0  0  0  0  0
   -1.7885   -6.8060  -27.2573 N   0  0  0  0  0  0  0  0  0  0  0  0
   -3.9836   -3.7393  -21.3439 C   0  0  0  0  0  0  0  0  0  0  0  0
   -3.2321   -4.1795  -22.2579 O   0  0  0  0  0  0  0  0  0  0  0  0
   -3.7654   -4.0128  -19.9690 N   0  0  0  0  0  0  0  0  0  0  0  0
   -2.6392   -4.8074  -19.4711 C   0  0  2  0  0  0  0  0  0  0  0  0
   -3.0563   -6.0175  -18.7385 C   0  0  0  0  0  0  0  0  0  0  0  0
   -4.2522   -6.3185  -18.5049 O   0  0  0  0  0  0  0  0  0  0  0  0
   -2.0440   -6.9235  -18.2486 N   0  0  0  0  0  0  0  0  0  0  0  0
   -0.6106   -6.8533  -18.4133 C   0  0  0  0  0  0  0  0  0  0  0  0
   -0.1312   -8.3030  -18.5519 C   0  0  0  0  0  0  0  0  0  0  0  0
   -1.1655   -9.0691  -17.7824 C   0  0  0  0  0  0  0  0  0  0  0  0
   -2.2596   -8.1172  -17.4443 C   0  0  1  0  0  0  0  0  0  0  0  0
   -2.0890   -7.7584  -15.9744 C   0  0  0  0  0  0  0  0  0  0  0  0
   -1.8261   -6.5483  -15.7841 O   0  0  0  0  0  0  0  0  0  0  0  0
   -2.2338   -8.7564  -15.0172 N   0  0  0  0  0  0  0  0  0  0  0  0
   -2.1289   -8.8037  -13.6104 C   0  0  1  0  0  0  0  0  0  0  0  0
   -2.2950   -7.4882  -12.8596 C   0  0  0  0  0  0  0  0  0  0  0  0
   -1.1352   -6.6100  -13.2014 C   0  0  0  0  0  0  0  0  0  0  0  0
   -0.0523   -7.1347  -13.6707 O   0  0  0  0  0  0  0  0  0  0  0  0
   -1.2217   -5.2239  -13.0132 O   0  0  0  0  0  0  0  0  0  0  0  0
   -2.9491   -9.8386  -13.0250 C   0  0  0  0  0  0  0  0  0  0  0  0
   -2.7144  -11.0615  -13.1496 O   0  0  0  0  0  0  0  0  0  0  0  0
   -4.0763   -9.4989  -12.2716 O   0  0  0  0  0  0  0  0  0  0  0  0
   -1.8889   -3.8968  -18.4695 C   0  0  0  0  0  0  0  0  0  0  0  0
   -1.4581   -2.6790  -19.2640 C   0  0  0  0  0  0  0  0  0  0  0  0
   -2.8111   -3.4916  -17.3286 C   0  0  0  0  0  0  0  0  0  0  0  0
  1  2  1  0
  2  3  1  0
  2  4  1  0
  4  5  1  6
  5  6  1  0
  6  7  2  0
  6  8  1  0
  8  9  1  6
  8 10  1  0
 10 11  1  0
 11 12  2  0
 11 13  1  0
 13 14  1  6
 14 15  1  0
 15 16  2  0
 16 17  1  0
 17 18  2  0
 18 19  1  0
 18 20  1  0
 20 21  2  0
 13 22  1  0
 22 23  1  0
 23 24  2  0
 23 25  1  0
 25 26  1  6
 25 27  1  0
 27 28  1  0
 28 29  1  0
 29 30  1  0
 30 31  1  0
 31 32  1  0
 31 33  2  0
  4 34  1  0
 34 35  2  0
 34 36  1  0
 37 36  1  1
 37 38  1  0
 38 39  2  0
 38 40  1  0
 40 41  1  0
 41 42  1  0
 42 43  1  0
 43 44  1  0
 44 45  1  1
 45 46  2  0
 45 47  1  0
 47 48  1  0
 48 49  1  1
 49 50  1  0
 50 51  2  0
 50 52  1  0
 48 53  1  0
 53 54  2  0
 53 55  1  0
 37 56  1  0
 56 57  1  0
 56 58  1  0
 21 15  1  0
 44 40  1  0
M  CHG  4  26   1  33   1  52  -1  55  -1
M  END
>  <shape_align_shape_tanimoto>  (2) 
0.43069852575785095

>  <shape_align_color_tanimoto>  (2) 
0.049049078875188237

>  <metric>  (2) 
color

>  <metric_score>  (2) 
0.049

>  <template_pid>  (2) 
6QTS

>  <template_shape_score>  (2) 
0.431

>  <template_color_score>  (2) 
0.049

>  <template_combo_score>  (2) 
0.240

$$$$
6QTS_combo_pose
     RDKit          3D

 58 59  0  0  0  0  0  0  0  0999 V2000
   -7.6187   -2.4508  -21.7315 C   0  0  0  0  0  0  0  0  0  0  0  0
   -6.4958   -3.4424  -21.3884 C   0  0  0  0  0  0  0  0  0  0  0  0
   -6.7759   -4.0390  -20.0672 C   0  0  0  0  0  0  0  0  0  0  0  0
   -5.1678   -2.8728  -21.6722 C   0  0  2  0  0  0  0  0  0  0  0  0
   -5.1021   -2.5556  -23.1276 N   0  0  0  0  0  0  0  0  0  0  0  0
   -4.0020   -1.8074  -23.6434 C   0  0  0  0  0  0  0  0  0  0  0  0
   -3.1064   -1.4772  -22.8272 O   0  0  0  0  0  0  0  0  0  0  0  0
   -3.9142   -1.4288  -25.0999 C   0  0  2  0  0  0  0  0  0  0  0  0
   -4.5430   -2.4404  -25.9717 C   0  0  0  0  0  0  0  0  0  0  0  0
   -2.5555   -1.1125  -25.4264 N   0  0  0  0  0  0  0  0  0  0  0  0
   -1.9124    0.1470  -25.3216 C   0  0  0  0  0  0  0  0  0  0  0  0
   -2.5862    1.0922  -24.8625 O   0  0  0  0  0  0  0  0  0  0  0  0
   -0.5073    0.2094  -25.7604 C   0  0  2  0  0  0  0  0  0  0  0  0
    0.2275    1.4589  -25.6872 C   0  0  0  0  0  0  0  0  0  0  0  0
    0.3561    1.9557  -24.3016 C   0  0  0  0  0  0  0  0  0  0  0  0
   -0.4433    2.8595  -23.6815 C   0  0  0  0  0  0  0  0  0  0  0  0
   -0.2112    3.2381  -22.3829 C   0  0  0  0  0  0  0  0  0  0  0  0
    0.8549    2.6963  -21.6811 C   0  0  0  0  0  0  0  0  0  0  0  0
    1.1431    3.0405  -20.3600 O   0  0  0  0  0  0  0  0  0  0  0  0
    1.6819    1.7813  -22.2762 C   0  0  0  0  0  0  0  0  0  0  0  0
    1.4261    1.4236  -23.5679 C   0  0  0  0  0  0  0  0  0  0  0  0
   -0.1782   -0.6979  -26.8625 N   0  0  0  0  0  0  0  0  0  0  0  0
   -1.1011   -0.9974  -27.9120 C   0  0  0  0  0  0  0  0  0  0  0  0
   -2.2561   -0.4459  -27.9231 O   0  0  0  0  0  0  0  0  0  0  0  0
   -0.8226   -1.9177  -29.0243 C   0  0  1  0  0  0  0  0  0  0  0  0
   -0.5468   -1.1784  -30.2527 N   0  0  0  0  0  0  0  0  0  0  0  0
    0.1811   -2.9967  -28.7638 C   0  0  0  0  0  0  0  0  0  0  0  0
   -0.3129   -3.8726  -27.6445 C   0  0  0  0  0  0  0  0  0  0  0  0
    0.6154   -5.0200  -27.3168 C   0  0  0  0  0  0  0  0  0  0  0  0
    0.1587   -5.8622  -26.2433 N   0  0  0  0  0  0  0  0  0  0  0  0
   -0.9813   -6.6821  -26.2635 C   0  0  0  0  0  0  0  0  0  0  0  0
   -1.2467   -7.4295  -25.0463 N   0  0  0  0  0  0  0  0  0  0  0  0
   -1.7885   -6.8060  -27.2573 N   0  0  0  0  0  0  0  0  0  0  0  0
   -3.9836   -3.7393  -21.3439 C   0  0  0  0  0  0  0  0  0  0  0  0
   -3.2321   -4.1795  -22.2579 O   0  0  0  0  0  0  0  0  0  0  0  0
   -3.7654   -4.0128  -19.9690 N   0  0  0  0  0  0  0  0  0  0  0  0
   -2.6392   -4.8074  -19.4711 C   0  0  2  0  0  0  0  0  0  0  0  0
   -3.0563   -6.0175  -18.7385 C   0  0  0  0  0  0  0  0  0  0  0  0
   -4.2522   -6.3185  -18.5049 O   0  0  0  0  0  0  0  0  0  0  0  0
   -2.0440   -6.9235  -18.2486 N   0  0  0  0  0  0  0  0  0  0  0  0
   -0.6106   -6.8533  -18.4133 C   0  0  0  0  0  0  0  0  0  0  0  0
   -0.1312   -8.3030  -18.5519 C   0  0  0  0  0  0  0  0  0  0  0  0
   -1.1655   -9.0691  -17.7824 C   0  0  0  0  0  0  0  0  0  0  0  0
   -2.2596   -8.1172  -17.4443 C   0  0  1  0  0  0  0  0  0  0  0  0
   -2.0890   -7.7584  -15.9744 C   0  0  0  0  0  0  0  0  0  0  0  0
   -1.8261   -6.5483  -15.7841 O   0  0  0  0  0  0  0  0  0  0  0  0
   -2.2338   -8.7564  -15.0172 N   0  0  0  0  0  0  0  0  0  0  0  0
   -2.1289   -8.8037  -13.6104 C   0  0  1  0  0  0  0  0  0  0  0  0
   -2.2950   -7.4882  -12.8596 C   0  0  0  0  0  0  0  0  0  0  0  0
   -1.1352   -6.6100  -13.2014 C   0  0  0  0  0  0  0  0  0  0  0  0
   -0.0523   -7.1347  -13.6707 O   0  0  0  0  0  0  0  0  0  0  0  0
   -1.2217   -5.2239  -13.0132 O   0  0  0  0  0  0  0  0  0  0  0  0
   -2.9491   -9.8386  -13.0250 C   0  0  0  0  0  0  0  0  0  0  0  0
   -2.7144  -11.0615  -13.1496 O   0  0  0  0  0  0  0  0  0  0  0  0
   -4.0763   -9.4989  -12.2716 O   0  0  0  0  0  0  0  0  0  0  0  0
   -1.8889   -3.8968  -18.4695 C   0  0  0  0  0  0  0  0  0  0  0  0
   -1.4581   -2.6790  -19.2640 C   0  0  0  0  0  0  0  0  0  0  0  0
   -2.8111   -3.4916  -17.3286 C   0  0  0  0  0  0  0  0  0  0  0  0
  1  2  1  0
  2  3  1  0
  2  4  1  0
  4  5  1  6
  5  6  1  0
  6  7  2  0
  6  8  1  0
  8  9  1  6
  8 10  1  0
 10 11  1  0
 11 12  2  0
 11 13  1  0
 13 14  1  6
 14 15  1  0
 15 16  2  0
 16 17  1  0
 17 18  2  0
 18 19  1  0
 18 20  1  0
 20 21  2  0
 13 22  1  0
 22 23  1  0
 23 24  2  0
 23 25  1  0
 25 26  1  6
 25 27  1  0
 27 28  1  0
 28 29  1  0
 29 30  1  0
 30 31  1  0
 31 32  1  0
 31 33  2  0
  4 34  1  0
 34 35  2  0
 34 36  1  0
 37 36  1  1
 37 38  1  0
 38 39  2  0
 38 40  1  0
 40 41  1  0
 41 42  1  0
 42 43  1  0
 43 44  1  0
 44 45  1  1
 45 46  2  0
 45 47  1  0
 47 48  1  0
 48 49  1  1
 49 50  1  0
 50 51  2  0
 50 52  1  0
 48 53  1  0
 53 54  2  0
 53 55  1  0
 37 56  1  0
 56 57  1  0
 56 58  1  0
 21 15  1  0
 44 40  1  0
M  CHG  4  26   1  33   1  52  -1  55  -1
M  END
>  <shape_align_shape_tanimoto>  (3) 
0.43069852575785095

>  <shape_align_color_tanimoto>  (3) 
0.049049078875188237

>  <metric>  (3) 
combo

>  <metric_score>  (3) 
0.240

>  <template_pid>  (3) 
6QTS

>  <template_shape_score>  (3) 
0.431

>  <template_color_score>  (3) 
0.049

>  <template_combo_score>  (3) 
0.240

$$$$
