4HT6_shape_pose
     RDKit          3D

 90 90  0  0  0  0  0  0  0  0999 V2000
   14.4281   23.9486   15.0472 C   0  0  0  0  0  0  0  0  0  0  0  0
   13.5978   22.7432   14.6797 C   0  0  0  0  0  0  0  0  0  0  0  0
   13.6125   21.6475   15.6970 C   0  0  2  0  0  0  0  0  0  0  0  0
   13.1077   22.1193   17.0485 C   0  0  0  0  0  0  0  0  0  0  0  0
   14.7760   20.7385   15.7356 C   0  0  2  0  0  0  0  0  0  0  0  0
   14.5083   19.7850   16.8300 N   0  0  0  0  0  0  0  0  0  0  0  0
   16.1007   21.3329   15.9401 C   0  0  0  0  0  0  0  0  0  0  0  0
   16.5852   22.0027   14.9719 O   0  0  0  0  0  0  0  0  0  0  0  0
   16.8520   21.1913   17.1726 N   0  0  0  0  0  0  0  0  0  0  0  0
   18.1362   21.8403   17.2323 C   0  0  2  0  0  0  0  0  0  0  0  0
   19.2656   21.0127   17.6490 C   0  0  0  0  0  0  0  0  0  0  0  0
   20.4133   21.5502   17.6543 O   0  0  0  0  0  0  0  0  0  0  0  0
   19.1737   19.6370   18.0536 N   0  0  0  0  0  0  0  0  0  0  0  0
   20.3838   18.9298   18.4293 C   0  0  1  0  0  0  0  0  0  0  0  0
   20.5485   18.7515   19.8847 C   0  0  0  0  0  0  0  0  0  0  0  0
   19.5221   18.0147   20.6129 C   0  0  0  0  0  0  0  0  0  0  0  0
   18.3998   18.6903   21.1209 C   0  0  0  0  0  0  0  0  0  0  0  0
   17.4257   17.9896   21.8242 C   0  0  0  0  0  0  0  0  0  0  0  0
   17.5131   16.6299   22.0508 C   0  0  0  0  0  0  0  0  0  0  0  0
   16.5101   15.9919   22.7577 O   0  0  0  0  0  0  0  0  0  0  0  0
   18.6154   15.9639   21.5531 C   0  0  0  0  0  0  0  0  0  0  0  0
   19.5776   16.6820   20.8532 C   0  0  0  0  0  0  0  0  0  0  0  0
   20.6120   17.7443   17.5763 C   0  0  0  0  0  0  0  0  0  0  0  0
   21.7410   17.1537   17.6736 O   0  0  0  0  0  0  0  0  0  0  0  0
   19.6382   17.2732   16.6847 N   0  0  0  0  0  0  0  0  0  0  0  0
   19.7343   16.1795   15.7721 C   0  0  1  0  0  0  0  0  0  0  0  0
   19.1557   14.8730   16.2105 C   0  0  0  0  0  0  0  0  0  0  0  0
   19.7562   14.2840   17.4241 C   0  0  0  0  0  0  0  0  0  0  0  0
   19.3310   14.4617   18.5867 O   0  0  0  0  0  0  0  0  0  0  0  0
   20.8875   13.4697   17.2248 O   0  0  0  0  0  0  0  0  0  0  0  0
   19.0441   16.5465   14.5115 C   0  0  0  0  0  0  0  0  0  0  0  0
   18.5832   17.7480   14.4884 O   0  0  0  0  0  0  0  0  0  0  0  0
   18.8736   15.6874   13.3931 N   0  0  0  0  0  0  0  0  0  0  0  0
   18.1401   16.2670   12.2717 C   0  0  1  0  0  0  0  0  0  0  0  0
   18.8895   16.0731   10.9826 C   0  0  0  0  0  0  0  0  0  0  0  0
   18.1822   16.6509    9.7875 C   0  0  0  0  0  0  0  0  0  0  0  0
   17.9574   18.1356    9.8491 C   0  0  0  0  0  0  0  0  0  0  0  0
   17.2495   18.6009    8.5886 C   0  0  0  0  0  0  0  0  0  0  0  0
   18.0399   18.2870    7.4108 N   0  0  0  0  0  0  0  0  0  0  0  0
   16.7773   15.6291   12.1823 C   0  0  0  0  0  0  0  0  0  0  0  0
   15.8525   16.2823   11.6432 O   0  0  0  0  0  0  0  0  0  0  0  0
   16.5021   14.3350   12.6763 N   0  0  0  0  0  0  0  0  0  0  0  0
   15.1005   13.8588   12.5704 C   0  0  0  0  0  0  0  0  0  0  0  0
   14.3773   14.7411   13.5509 C   0  0  0  0  0  0  0  0  0  0  0  0
   15.1296   15.5663   14.1572 O   0  0  0  0  0  0  0  0  0  0  0  0
   12.9914   14.6767   13.8093 N   0  0  0  0  0  0  0  0  0  0  0  0
   12.5082   15.5848   14.8624 C   0  0  2  0  0  0  0  0  0  0  0  0
   11.8404   14.7444   15.9425 C   0  0  0  0  0  0  0  0  0  0  0  0
   12.0535   15.1456   17.1176 O   0  0  0  0  0  0  0  0  0  0  0  0
   11.0784   13.6534   15.5653 N   0  0  0  0  0  0  0  0  0  0  0  0
   10.3675   12.6867   16.3220 C   0  0  1  0  0  0  0  0  0  0  0  0
   11.0841   12.4666   17.6962 C   0  0  0  0  0  0  0  0  0  0  0  0
   12.4875   11.9779   17.5044 C   0  0  0  0  0  0  0  0  0  0  0  0
   13.1701   11.7826   18.8024 C   0  0  0  0  0  0  0  0  0  0  0  0
   14.5460   11.3138   18.7647 N   0  0  0  0  0  0  0  0  0  0  0  0
   12.7003   11.9737   19.9232 O   0  0  0  0  0  0  0  0  0  0  0  0
    8.9914   13.0153   16.7375 C   0  0  0  0  0  0  0  0  0  0  0  0
    8.1757   12.0311   16.7656 O   0  0  0  0  0  0  0  0  0  0  0  0
    8.6255   14.3150   17.0832 N   0  0  0  0  0  0  0  0  0  0  0  0
    7.3666   14.8282   17.4929 C   0  0  2  0  0  0  0  0  0  0  0  0
    7.4051   15.9772   18.4153 C   0  0  0  0  0  0  0  0  0  0  0  0
    6.3107   16.6289   18.5355 O   0  0  0  0  0  0  0  0  0  0  0  0
    8.5857   16.2935   19.1024 N   0  0  0  0  0  0  0  0  0  0  0  0
    8.8307   17.3469   20.0492 C   0  0  1  0  0  0  0  0  0  0  0  0
    9.1581   16.7628   21.4275 C   0  0  0  0  0  0  0  0  0  0  0  0
    8.0136   15.9747   21.8997 C   0  0  0  0  0  0  0  0  0  0  0  0
    6.9183   15.8288   21.3518 O   0  0  0  0  0  0  0  0  0  0  0  0
    8.1881   15.3065   23.1273 O   0  0  0  0  0  0  0  0  0  0  0  0
   10.0130   18.2021   19.6427 C   0  0  0  0  0  0  0  0  0  0  0  0
   10.6068   17.9871   18.5554 O   0  0  0  0  0  0  0  0  0  0  0  0
   10.3905   19.2241   20.5522 N   0  0  0  0  0  0  0  0  0  0  0  0
   11.5258   20.1174   20.3087 C   0  0  1  0  0  0  0  0  0  0  0  0
   11.1804   21.5320   20.6274 C   0  0  0  0  0  0  0  0  0  0  0  0
   10.0337   22.0753   19.8096 C   0  0  0  0  0  0  0  0  0  0  0  0
    9.7855   23.4961   20.2459 C   0  0  0  0  0  0  0  0  0  0  0  0
    8.6824   24.2440   19.7368 N   0  0  0  0  0  0  0  0  0  0  0  0
   10.5282   24.0822   21.0686 O   0  0  0  0  0  0  0  0  0  0  0  0
   12.5926   19.7171   21.3057 C   0  0  0  0  0  0  0  0  0  0  0  0
   12.3304   19.0146   22.3076 O   0  0  0  0  0  0  0  0  0  0  0  0
   13.9062   20.1569   21.0783 O   0  0  0  0  0  0  0  0  0  0  0  0
    6.5371   13.7066   18.1942 C   0  0  1  0  0  0  0  0  0  0  0  0
    7.2672   13.2736   19.4140 C   0  0  0  0  0  0  0  0  0  0  0  0
    5.3314   14.3197   18.5907 O   0  0  0  0  0  0  0  0  0  0  0  0
   11.4519   16.4307   14.1830 C   0  0  1  0  0  0  0  0  0  0  0  0
   10.8385   17.4290   15.1468 C   0  0  0  0  0  0  0  0  0  0  0  0
   12.0918   17.1517   13.0232 C   0  0  0  0  0  0  0  0  0  0  0  0
   13.2032   18.0779   13.4027 C   0  0  0  0  0  0  0  0  0  0  0  0
   18.0229   23.1034   18.1118 C   0  0  1  0  0  0  0  0  0  0  0  0
   17.5392   22.7974   19.4920 C   0  0  0  0  0  0  0  0  0  0  0  0
   19.2307   23.7646   18.1974 O   0  0  0  0  0  0  0  0  0  0  0  0
  1  2  1  0
  2  3  1  0
  3  4  1  1
  3  5  1  0
  5  6  1  1
  5  7  1  0
  7  8  2  0
  7  9  1  0
 10  9  1  1
 10 11  1  0
 11 12  2  0
 11 13  1  0
 13 14  1  0
 14 15  1  1
 15 16  1  0
 16 17  2  0
 17 18  1  0
 18 19  2  0
 19 20  1  0
 19 21  1  0
 21 22  2  0
 14 23  1  0
 23 24  2  0
 23 25  1  0
 25 26  1  0
 26 27  1  1
 27 28  1  0
 28 29  2  0
 28 30  1  0
 26 31  1  0
 31 32  2  0
 31 33  1  0
 33 34  1  0
 34 35  1  6
 35 36  1  0
 36 37  1  0
 37 38  1  0
 38 39  1  0
 34 40  1  0
 40 41  2  0
 40 42  1  0
 42 43  1  0
 43 44  1  0
 44 45  2  0
 44 46  1  0
 47 46  1  6
 47 48  1  0
 48 49  2  0
 48 50  1  0
 50 51  1  0
 51 52  1  1
 52 53  1  0
 53 54  1  0
 54 55  1  0
 54 56  2  0
 51 57  1  0
 57 58  2  0
 57 59  1  0
 60 59  1  1
 60 61  1  0
 61 62  2  0
 61 63  1  0
 63 64  1  0
 64 65  1  1
 65 66  1  0
 66 67  2  0
 66 68  1  0
 64 69  1  0
 69 70  2  0
 69 71  1  0
 71 72  1  0
 72 73  1  1
 73 74  1  0
 74 75  1  0
 75 76  1  0
 75 77  2  0
 72 78  1  0
 78 79  2  0
 78 80  1  0
 60 81  1  0
 81 82  1  1
 81 83  1  0
 47 84  1  0
 84 85  1  1
 84 86  1  0
 86 87  1  0
 10 88  1  0
 88 89  1  1
 88 90  1  0
 22 16  1  0
M  CHG  5   6   1  30  -1  39   1  68  -1  80  -1
M  END
>  <shape_align_shape_tanimoto>  (1) 
0.31355996422959925

>  <shape_align_color_tanimoto>  (1) 
0.0037510867761914131

>  <metric>  (1) 
shape

>  <metric_score>  (1) 
0.314

>  <template_pid>  (1) 
4HT6

>  <template_shape_score>  (1) 
0.314

>  <template_color_score>  (1) 
0.004

>  <template_combo_score>  (1) 
0.159

$$$$
4HT6_color_pose
     RDKit          3D

 90 90  0  0  0  0  0  0  0  0999 V2000
   21.1369   22.1854   16.3455 C   0  0  0  0  0  0  0  0  0  0  0  0
   20.7851   23.0297   15.1491 C   0  0  0  0  0  0  0  0  0  0  0  0
   19.3230   22.9788   14.7802 C   0  0  2  0  0  0  0  0  0  0  0  0
   18.4560   23.4847   15.9265 C   0  0  0  0  0  0  0  0  0  0  0  0
   18.8740   21.5980   14.4224 C   0  0  2  0  0  0  0  0  0  0  0  0
   19.6101   21.0575   13.2963 N   0  0  0  0  0  0  0  0  0  0  0  0
   17.3999   21.5409   14.1240 C   0  0  0  0  0  0  0  0  0  0  0  0
   16.5464   22.0132   14.8933 O   0  0  0  0  0  0  0  0  0  0  0  0
   16.9636   20.9307   12.9283 N   0  0  0  0  0  0  0  0  0  0  0  0
   15.5887   20.8010   12.5025 C   0  0  2  0  0  0  0  0  0  0  0  0
   15.1491   19.4021   12.3594 C   0  0  0  0  0  0  0  0  0  0  0  0
   14.0573   19.1217   11.8018 O   0  0  0  0  0  0  0  0  0  0  0  0
   15.9302   18.2962   12.8424 N   0  0  0  0  0  0  0  0  0  0  0  0
   15.5232   16.9215   12.6952 C   0  0  1  0  0  0  0  0  0  0  0  0
   16.6157   15.9928   12.3216 C   0  0  0  0  0  0  0  0  0  0  0  0
   17.1979   16.4089   11.0166 C   0  0  0  0  0  0  0  0  0  0  0  0
   16.7125   15.9046    9.8270 C   0  0  0  0  0  0  0  0  0  0  0  0
   17.2774   16.3196    8.6216 C   0  0  0  0  0  0  0  0  0  0  0  0
   18.3182   17.2292    8.5759 C   0  0  0  0  0  0  0  0  0  0  0  0
   18.8634   17.6292    7.3574 O   0  0  0  0  0  0  0  0  0  0  0  0
   18.7764   17.7113    9.7889 C   0  0  0  0  0  0  0  0  0  0  0  0
   18.2539   17.3330   11.0031 C   0  0  0  0  0  0  0  0  0  0  0  0
   14.6519   16.4444   13.8099 C   0  0  0  0  0  0  0  0  0  0  0  0
   14.3299   17.2584   14.7090 O   0  0  0  0  0  0  0  0  0  0  0  0
   14.1889   15.0765   13.8378 N   0  0  0  0  0  0  0  0  0  0  0  0
   13.2886   14.6437   14.9385 C   0  0  1  0  0  0  0  0  0  0  0  0
   11.9872   14.2930   14.2766 C   0  0  0  0  0  0  0  0  0  0  0  0
   10.9087   13.8704   15.1532 C   0  0  0  0  0  0  0  0  0  0  0  0
   10.8821   13.8323   16.3892 O   0  0  0  0  0  0  0  0  0  0  0  0
    9.7180   13.4388   14.5139 O   0  0  0  0  0  0  0  0  0  0  0  0
   13.8752   13.6039   15.7774 C   0  0  0  0  0  0  0  0  0  0  0  0
   13.2244   13.1128   16.7646 O   0  0  0  0  0  0  0  0  0  0  0  0
   15.1802   13.0394   15.6018 N   0  0  0  0  0  0  0  0  0  0  0  0
   15.5627   11.9640   16.6046 C   0  0  1  0  0  0  0  0  0  0  0  0
   16.1901   10.9441   15.7163 C   0  0  0  0  0  0  0  0  0  0  0  0
   16.7184    9.6777   16.2120 C   0  0  0  0  0  0  0  0  0  0  0  0
   17.8490    9.6082   17.1511 C   0  0  0  0  0  0  0  0  0  0  0  0
   19.1112   10.2753   16.6535 C   0  0  0  0  0  0  0  0  0  0  0  0
   19.5825    9.6795   15.4176 N   0  0  0  0  0  0  0  0  0  0  0  0
   16.5314   12.5741   17.5242 C   0  0  0  0  0  0  0  0  0  0  0  0
   17.2643   13.5317   17.1025 O   0  0  0  0  0  0  0  0  0  0  0  0
   16.7288   12.2027   18.8754 N   0  0  0  0  0  0  0  0  0  0  0  0
   17.7011   12.8919   19.6389 C   0  0  0  0  0  0  0  0  0  0  0  0
   17.6909   12.3893   21.0796 C   0  0  0  0  0  0  0  0  0  0  0  0
   16.9010   11.4904   21.4405 O   0  0  0  0  0  0  0  0  0  0  0  0
   18.6230   13.0380   21.9021 N   0  0  0  0  0  0  0  0  0  0  0  0
   18.8227   12.7863   23.3537 C   0  0  2  0  0  0  0  0  0  0  0  0
   18.2060   14.0393   23.9216 C   0  0  0  0  0  0  0  0  0  0  0  0
   17.3494   14.5666   23.1236 O   0  0  0  0  0  0  0  0  0  0  0  0
   18.4296   14.6654   25.1143 N   0  0  0  0  0  0  0  0  0  0  0  0
   17.7016   15.8711   25.4544 C   0  0  1  0  0  0  0  0  0  0  0  0
   17.8891   16.2480   26.8837 C   0  0  0  0  0  0  0  0  0  0  0  0
   19.3421   16.5057   27.1992 C   0  0  0  0  0  0  0  0  0  0  0  0
   19.4808   16.8878   28.6146 C   0  0  0  0  0  0  0  0  0  0  0  0
   20.8249   17.1712   29.0610 N   0  0  0  0  0  0  0  0  0  0  0  0
   18.5088   16.9655   29.3876 O   0  0  0  0  0  0  0  0  0  0  0  0
   18.1628   17.0255   24.6034 C   0  0  0  0  0  0  0  0  0  0  0  0
   17.6237   18.1599   24.7818 O   0  0  0  0  0  0  0  0  0  0  0  0
   19.1500   16.9251   23.6202 N   0  0  0  0  0  0  0  0  0  0  0  0
   19.5685   18.0846   22.7823 C   0  0  2  0  0  0  0  0  0  0  0  0
   19.3865   17.6150   21.4040 C   0  0  0  0  0  0  0  0  0  0  0  0
   18.9597   16.4074   21.2916 O   0  0  0  0  0  0  0  0  0  0  0  0
   19.6131   18.2997   20.2118 N   0  0  0  0  0  0  0  0  0  0  0  0
   19.3580   17.6195   18.9576 C   0  0  1  0  0  0  0  0  0  0  0  0
   18.1380   18.2480   18.3322 C   0  0  0  0  0  0  0  0  0  0  0  0
   18.2813   19.6926   18.0553 C   0  0  0  0  0  0  0  0  0  0  0  0
   19.3157   20.3566   18.3019 O   0  0  0  0  0  0  0  0  0  0  0  0
   17.1551   20.3125   17.4792 O   0  0  0  0  0  0  0  0  0  0  0  0
   20.5280   17.5293   18.0722 C   0  0  0  0  0  0  0  0  0  0  0  0
   21.6590   17.9838   18.3364 O   0  0  0  0  0  0  0  0  0  0  0  0
   20.3597   16.8737   16.8226 N   0  0  0  0  0  0  0  0  0  0  0  0
   21.4884   16.7333   15.8992 C   0  0  1  0  0  0  0  0  0  0  0  0
   21.7689   15.2775   15.6273 C   0  0  0  0  0  0  0  0  0  0  0  0
   22.9201   15.0504   14.6956 C   0  0  0  0  0  0  0  0  0  0  0  0
   24.1784   15.5691   15.2740 C   0  0  0  0  0  0  0  0  0  0  0  0
   25.3776   15.5617   14.4771 N   0  0  0  0  0  0  0  0  0  0  0  0
   24.3046   16.0309   16.4322 O   0  0  0  0  0  0  0  0  0  0  0  0
   21.2687   17.5343   14.6724 C   0  0  0  0  0  0  0  0  0  0  0  0
   21.3546   18.8040   14.8272 O   0  0  0  0  0  0  0  0  0  0  0  0
   20.9876   17.0179   13.4234 O   0  0  0  0  0  0  0  0  0  0  0  0
   21.0073   18.3430   23.1321 C   0  0  1  0  0  0  0  0  0  0  0  0
   21.4241   19.6507   22.4825 C   0  0  0  0  0  0  0  0  0  0  0  0
   21.0504   18.6208   24.5285 O   0  0  0  0  0  0  0  0  0  0  0  0
   20.2582   12.7158   23.6890 C   0  0  1  0  0  0  0  0  0  0  0  0
   20.4832   12.4043   25.1357 C   0  0  0  0  0  0  0  0  0  0  0  0
   21.0241   11.7417   22.7983 C   0  0  0  0  0  0  0  0  0  0  0  0
   20.4608   10.3373   22.9474 C   0  0  0  0  0  0  0  0  0  0  0  0
   15.4177   21.5285   11.1972 C   0  0  1  0  0  0  0  0  0  0  0  0
   15.6947   23.0124   11.3576 C   0  0  0  0  0  0  0  0  0  0  0  0
   16.2144   21.0492   10.1717 O   0  0  0  0  0  0  0  0  0  0  0  0
  1  2  1  0
  2  3  1  0
  3  4  1  1
  3  5  1  0
  5  6  1  6
  5  7  1  0
  7  8  2  0
  7  9  1  0
 10  9  1  6
 10 11  1  0
 11 12  2  0
 11 13  1  0
 13 14  1  0
 14 15  1  1
 15 16  1  0
 16 17  2  0
 17 18  1  0
 18 19  2  0
 19 20  1  0
 19 21  1  0
 21 22  2  0
 14 23  1  0
 23 24  2  0
 23 25  1  0
 25 26  1  0
 26 27  1  6
 27 28  1  0
 28 29  2  0
 28 30  1  0
 26 31  1  0
 31 32  2  0
 31 33  1  0
 33 34  1  0
 34 35  1  6
 35 36  1  0
 36 37  1  0
 37 38  1  0
 38 39  1  0
 34 40  1  0
 40 41  2  0
 40 42  1  0
 42 43  1  0
 43 44  1  0
 44 45  2  0
 44 46  1  0
 47 46  1  6
 47 48  1  0
 48 49  2  0
 48 50  1  0
 50 51  1  0
 51 52  1  1
 52 53  1  0
 53 54  1  0
 54 55  1  0
 54 56  2  0
 51 57  1  0
 57 58  2  0
 57 59  1  0
 60 59  1  1
 60 61  1  0
 61 62  2  0
 61 63  1  0
 63 64  1  0
 64 65  1  6
 65 66  1  0
 66 67  2  0
 66 68  1  0
 64 69  1  0
 69 70  2  0
 69 71  1  0
 71 72  1  0
 72 73  1  6
 73 74  1  0
 74 75  1  0
 75 76  1  0
 75 77  2  0
 72 78  1  0
 78 79  2  0
 78 80  1  0
 60 81  1  0
 81 82  1  6
 81 83  1  0
 47 84  1  0
 84 85  1  1
 84 86  1  0
 86 87  1  0
 10 88  1  0
 88 89  1  1
 88 90  1  0
 22 16  1  0
M  CHG  5   6   1  30  -1  39   1  68  -1  80  -1
M  END
>  <shape_align_shape_tanimoto>  (2) 
0.23804829158401605

>  <shape_align_color_tanimoto>  (2) 
0.044408270492078142

>  <metric>  (2) 
color

>  <metric_score>  (2) 
0.044

>  <template_pid>  (2) 
4HT6

>  <template_shape_score>  (2) 
0.238

>  <template_color_score>  (2) 
0.044

>  <template_combo_score>  (2) 
0.141

$$$$
4HT6_combo_pose
     RDKit          3D

 90 90  0  0  0  0  0  0  0  0999 V2000
    8.6331   13.4092   18.2810 C   0  0  0  0  0  0  0  0  0  0  0  0
    8.4442   14.1439   16.9995 C   0  0  0  0  0  0  0  0  0  0  0  0
    8.6476   13.3491   15.7538 C   0  0  2  0  0  0  0  0  0  0  0  0
    7.6828   12.1987   15.7341 C   0  0  0  0  0  0  0  0  0  0  0  0
   10.0487   12.9366   15.4573 C   0  0  2  0  0  0  0  0  0  0  0  0
   10.6690   12.1168   16.4589 N   0  0  0  0  0  0  0  0  0  0  0  0
   10.9154   14.0602   14.9831 C   0  0  0  0  0  0  0  0  0  0  0  0
   10.4526   14.8106   14.0897 O   0  0  0  0  0  0  0  0  0  0  0  0
   12.1904   14.2033   15.5691 N   0  0  0  0  0  0  0  0  0  0  0  0
   13.1318   15.2770   15.1656 C   0  0  2  0  0  0  0  0  0  0  0  0
   14.3721   14.5521   14.7936 C   0  0  0  0  0  0  0  0  0  0  0  0
   14.3421   13.2931   15.0310 O   0  0  0  0  0  0  0  0  0  0  0  0
   15.5311   15.1335   14.2195 N   0  0  0  0  0  0  0  0  0  0  0  0
   16.6399   14.2083   13.9556 C   0  0  1  0  0  0  0  0  0  0  0  0
   16.7879   14.0854   12.4483 C   0  0  0  0  0  0  0  0  0  0  0  0
   17.0825   15.3792   11.8082 C   0  0  0  0  0  0  0  0  0  0  0  0
   16.0574   16.2207   11.4252 C   0  0  0  0  0  0  0  0  0  0  0  0
   16.2523   17.4389   10.8177 C   0  0  0  0  0  0  0  0  0  0  0  0
   17.5646   17.8334   10.5824 C   0  0  0  0  0  0  0  0  0  0  0  0
   17.7152   19.0683    9.9662 O   0  0  0  0  0  0  0  0  0  0  0  0
   18.6445   17.0327   10.9456 C   0  0  0  0  0  0  0  0  0  0  0  0
   18.3658   15.8369   11.5435 C   0  0  0  0  0  0  0  0  0  0  0  0
   17.8934   14.5605   14.6093 C   0  0  0  0  0  0  0  0  0  0  0  0
   18.7784   13.6424   14.7106 O   0  0  0  0  0  0  0  0  0  0  0  0
   18.2306   15.8285   15.1465 N   0  0  0  0  0  0  0  0  0  0  0  0
   19.5595   15.9023   15.8028 C   0  0  1  0  0  0  0  0  0  0  0  0
   20.5921   16.0965   14.6765 C   0  0  0  0  0  0  0  0  0  0  0  0
   21.9596   16.1817   15.1780 C   0  0  0  0  0  0  0  0  0  0  0  0
   22.3303   16.1277   16.3713 O   0  0  0  0  0  0  0  0  0  0  0  0
   22.9892   16.3457   14.2317 O   0  0  0  0  0  0  0  0  0  0  0  0
   19.6656   16.9979   16.7542 C   0  0  0  0  0  0  0  0  0  0  0  0
   19.2180   18.1369   16.3892 O   0  0  0  0  0  0  0  0  0  0  0  0
   20.2403   16.7690   18.0250 N   0  0  0  0  0  0  0  0  0  0  0  0
   20.3886   17.8600   19.0301 C   0  0  1  0  0  0  0  0  0  0  0  0
   21.4483   18.7631   18.5940 C   0  0  0  0  0  0  0  0  0  0  0  0
   21.9410   19.9332   19.3194 C   0  0  0  0  0  0  0  0  0  0  0  0
   21.0941   21.0969   19.6337 C   0  0  0  0  0  0  0  0  0  0  0  0
   20.4368   21.7450   18.4285 C   0  0  0  0  0  0  0  0  0  0  0  0
   19.6478   22.8643   18.9061 N   0  0  0  0  0  0  0  0  0  0  0  0
   19.0639   18.3592   19.4066 C   0  0  0  0  0  0  0  0  0  0  0  0
   18.8106   19.3152   20.1834 O   0  0  0  0  0  0  0  0  0  0  0  0
   17.8347   17.7596   18.8785 N   0  0  0  0  0  0  0  0  0  0  0  0
   16.5363   18.2483   19.2113 C   0  0  0  0  0  0  0  0  0  0  0  0
   16.1443   18.1381   20.6427 C   0  0  0  0  0  0  0  0  0  0  0  0
   16.9104   17.6774   21.5014 O   0  0  0  0  0  0  0  0  0  0  0  0
   14.8080   18.6020   20.9244 N   0  0  0  0  0  0  0  0  0  0  0  0
   14.2731   18.5273   22.3165 C   0  0  2  0  0  0  0  0  0  0  0  0
   13.3122   17.3817   22.3210 C   0  0  0  0  0  0  0  0  0  0  0  0
   13.1914   16.8240   21.1670 O   0  0  0  0  0  0  0  0  0  0  0  0
   12.5769   16.8888   23.4050 N   0  0  0  0  0  0  0  0  0  0  0  0
   11.6633   15.7883   23.3882 C   0  0  1  0  0  0  0  0  0  0  0  0
   10.3477   15.9761   22.7305 C   0  0  0  0  0  0  0  0  0  0  0  0
   10.3236   16.3468   21.2946 C   0  0  0  0  0  0  0  0  0  0  0  0
    8.8519   16.4079   20.8968 C   0  0  0  0  0  0  0  0  0  0  0  0
    8.5776   16.8510   19.5775 N   0  0  0  0  0  0  0  0  0  0  0  0
    7.9521   16.0792   21.6979 O   0  0  0  0  0  0  0  0  0  0  0  0
   12.2627   14.4820   22.9936 C   0  0  0  0  0  0  0  0  0  0  0  0
   11.4597   13.5091   22.9196 O   0  0  0  0  0  0  0  0  0  0  0  0
   13.6185   14.2606   22.7093 N   0  0  0  0  0  0  0  0  0  0  0  0
   14.1720   12.9622   22.3273 C   0  0  2  0  0  0  0  0  0  0  0  0
   15.3709   12.7617   23.1802 C   0  0  0  0  0  0  0  0  0  0  0  0
   15.6309   13.6716   24.0124 O   0  0  0  0  0  0  0  0  0  0  0  0
   16.2153   11.6322   23.1067 N   0  0  0  0  0  0  0  0  0  0  0  0
   17.3831   11.4682   23.9379 C   0  0  1  0  0  0  0  0  0  0  0  0
   17.3398   10.3240   24.8977 C   0  0  0  0  0  0  0  0  0  0  0  0
   16.2419   10.3487   25.8750 C   0  0  0  0  0  0  0  0  0  0  0  0
   15.3590   11.2253   25.9651 O   0  0  0  0  0  0  0  0  0  0  0  0
   16.1785    9.2874   26.7957 O   0  0  0  0  0  0  0  0  0  0  0  0
   18.5907   11.1900   23.0752 C   0  0  0  0  0  0  0  0  0  0  0  0
   18.3172   11.1199   21.8256 O   0  0  0  0  0  0  0  0  0  0  0  0
   19.8887   11.0181   23.5738 N   0  0  0  0  0  0  0  0  0  0  0  0
   20.9674   10.7333   22.6571 C   0  0  1  0  0  0  0  0  0  0  0  0
   22.0255   11.7823   22.5740 C   0  0  0  0  0  0  0  0  0  0  0  0
   22.7038   12.0410   23.9045 C   0  0  0  0  0  0  0  0  0  0  0  0
   23.7362   13.1094   23.6864 C   0  0  0  0  0  0  0  0  0  0  0  0
   24.6010   13.5372   24.7192 N   0  0  0  0  0  0  0  0  0  0  0  0
   23.8739   13.6697   22.5600 O   0  0  0  0  0  0  0  0  0  0  0  0
   21.6083    9.4555   23.1081 C   0  0  0  0  0  0  0  0  0  0  0  0
   21.4939    9.0112   24.2772 O   0  0  0  0  0  0  0  0  0  0  0  0
   22.3780    8.6878   22.2260 O   0  0  0  0  0  0  0  0  0  0  0  0
   14.5695   13.0755   20.8582 C   0  0  1  0  0  0  0  0  0  0  0  0
   13.3518   13.4645   20.0757 C   0  0  0  0  0  0  0  0  0  0  0  0
   15.4962   14.1012   20.7726 O   0  0  0  0  0  0  0  0  0  0  0  0
   13.7057   19.8378   22.7062 C   0  0  1  0  0  0  0  0  0  0  0  0
   13.1510   19.9456   24.0952 C   0  0  0  0  0  0  0  0  0  0  0  0
   14.7275   20.9669   22.5697 C   0  0  0  0  0  0  0  0  0  0  0  0
   15.9477   20.7580   23.4226 C   0  0  0  0  0  0  0  0  0  0  0  0
   13.3072   16.2245   16.3311 C   0  0  1  0  0  0  0  0  0  0  0  0
   14.0641   17.4402   15.8523 C   0  0  0  0  0  0  0  0  0  0  0  0
   12.0118   16.6924   16.6259 O   0  0  0  0  0  0  0  0  0  0  0  0
  1  2  1  0
  2  3  1  0
  3  4  1  1
  3  5  1  0
  5  6  1  1
  5  7  1  0
  7  8  2  0
  7  9  1  0
 10  9  1  1
 10 11  1  0
 11 12  2  0
 11 13  1  0
 13 14  1  0
 14 15  1  6
 15 16  1  0
 16 17  2  0
 17 18  1  0
 18 19  2  0
 19 20  1  0
 19 21  1  0
 21 22  2  0
 14 23  1  0
 23 24  2  0
 23 25  1  0
 25 26  1  0
 26 27  1  6
 27 28  1  0
 28 29  2  0
 28 30  1  0
 26 31  1  0
 31 32  2  0
 31 33  1  0
 33 34  1  0
 34 35  1  6
 35 36  1  0
 36 37  1  0
 37 38  1  0
 38 39  1  0
 34 40  1  0
 40 41  2  0
 40 42  1  0
 42 43  1  0
 43 44  1  0
 44 45  2  0
 44 46  1  0
 47 46  1  6
 47 48  1  0
 48 49  2  0
 48 50  1  0
 50 51  1  0
 51 52  1  6
 52 53  1  0
 53 54  1  0
 54 55  1  0
 54 56  2  0
 51 57  1  0
 57 58  2  0
 57 59  1  0
 60 59  1  1
 60 61  1  0
 61 62  2  0
 61 63  1  0
 63 64  1  0
 64 65  1  1
 65 66  1  0
 66 67  2  0
 66 68  1  0
 64 69  1  0
 69 70  2  0
 69 71  1  0
 71 72  1  0
 72 73  1  1
 73 74  1  0
 74 75  1  0
 75 76  1  0
 75 77  2  0
 72 78  1  0
 78 79  2  0
 78 80  1  0
 60 81  1  0
 81 82  1  6
 81 83  1  0
 47 84  1  0
 84 85  1  1
 84 86  1  0
 86 87  1  0
 10 88  1  0
 88 89  1  6
 88 90  1  0
 22 16  1  0
M  CHG  5   6   1  30  -1  39   1  68  -1  80  -1
M  END
>  <shape_align_shape_tanimoto>  (3) 
0.3075798218200842

>  <shape_align_color_tanimoto>  (3) 
0.019339483183207815

>  <metric>  (3) 
combo

>  <metric_score>  (3) 
0.163

>  <template_pid>  (3) 
4HT6

>  <template_shape_score>  (3) 
0.308

>  <template_color_score>  (3) 
0.019

>  <template_combo_score>  (3) 
0.163

$$$$
