2F7I_shape_pose
     RDKit          3D

 17 18  0  0  0  0  0  0  0  0999 V2000
   51.0365   -2.2603   -5.5654 O   0  0  0  0  0  0  0  0  0  0  0  0
   50.8474   -1.0172   -5.6173 C   0  0  0  0  0  0  0  0  0  0  0  0
   50.9389   -0.3918   -6.8531 O   0  0  0  0  0  0  0  0  0  0  0  0
   50.5412   -0.2551   -4.4160 C   0  0  0  0  0  0  0  0  0  0  0  0
   50.3404    1.1064   -4.5137 C   0  0  0  0  0  0  0  0  0  0  0  0
   50.0469    1.8247   -3.3493 C   0  0  0  0  0  0  0  0  0  0  0  0
   49.9587    1.1814   -2.1161 C   0  0  0  0  0  0  0  0  0  0  0  0
   49.6502    1.9675   -0.9241 C   0  0  0  0  0  0  0  0  0  0  0  0
   50.7151    2.5078   -0.2085 C   0  0  0  0  0  0  0  0  0  0  0  0
   52.0121    2.3083   -0.6097 F   0  0  0  0  0  0  0  0  0  0  0  0
   50.5146    3.2635    0.9297 C   0  0  0  0  0  0  0  0  0  0  0  0
   49.2172    3.4773    1.3522 C   0  0  0  0  0  0  0  0  0  0  0  0
   48.1419    2.9531    0.6613 C   0  0  0  0  0  0  0  0  0  0  0  0
   48.3561    2.1898   -0.4892 C   0  0  0  0  0  0  0  0  0  0  0  0
   47.3237    1.6642   -1.1857 F   0  0  0  0  0  0  0  0  0  0  0  0
   50.1671   -0.2016   -2.0452 C   0  0  0  0  0  0  0  0  0  0  0  0
   50.4577   -0.9081   -3.2034 C   0  0  0  0  0  0  0  0  0  0  0  0
  1  2  2  0
  2  3  1  0
  2  4  1  0
  4  5  2  0
  5  6  1  0
  6  7  2  0
  7  8  1  0
  8  9  2  0
  9 10  1  0
  9 11  1  0
 11 12  2  0
 12 13  1  0
 13 14  2  0
 14 15  1  0
  7 16  1  0
 16 17  2  0
 17  4  1  0
 14  8  1  0
M  CHG  1   3  -1
M  END
>  <shape_align_shape_tanimoto>  (1) 
0.48282569215740734

>  <shape_align_color_tanimoto>  (1) 
0.0054555437024659563

>  <metric>  (1) 
shape

>  <metric_score>  (1) 
0.483

>  <template_pid>  (1) 
2F7I

>  <template_shape_score>  (1) 
0.483

>  <template_color_score>  (1) 
0.005

>  <template_combo_score>  (1) 
0.244

$$$$
2F7I_color_pose
     RDKit          3D

 17 18  0  0  0  0  0  0  0  0999 V2000
   46.6569   -3.5079   -6.9296 O   0  0  0  0  0  0  0  0  0  0  0  0
   47.0636   -3.8338   -5.7843 C   0  0  0  0  0  0  0  0  0  0  0  0
   47.0633   -5.1426   -5.3207 O   0  0  0  0  0  0  0  0  0  0  0  0
   47.5611   -2.7748   -4.9008 C   0  0  0  0  0  0  0  0  0  0  0  0
   48.0210   -3.0673   -3.6324 C   0  0  0  0  0  0  0  0  0  0  0  0
   48.4756   -2.0246   -2.8514 C   0  0  0  0  0  0  0  0  0  0  0  0
   48.4917   -0.7113   -3.2768 C   0  0  0  0  0  0  0  0  0  0  0  0
   48.9925    0.3277   -2.3775 C   0  0  0  0  0  0  0  0  0  0  0  0
   50.3386    0.6879   -2.3662 C   0  0  0  0  0  0  0  0  0  0  0  0
   51.1474    0.0323   -3.2218 F   0  0  0  0  0  0  0  0  0  0  0  0
   50.8104    1.6744   -1.5116 C   0  0  0  0  0  0  0  0  0  0  0  0
   49.8919    2.2781   -0.6793 C   0  0  0  0  0  0  0  0  0  0  0  0
   48.5626    1.9230   -0.6898 C   0  0  0  0  0  0  0  0  0  0  0  0
   48.0990    0.9559   -1.5274 C   0  0  0  0  0  0  0  0  0  0  0  0
   46.7872    0.5980   -1.5453 F   0  0  0  0  0  0  0  0  0  0  0  0
   48.0277   -0.4396   -4.5482 C   0  0  0  0  0  0  0  0  0  0  0  0
   47.5621   -1.4592   -5.3653 C   0  0  0  0  0  0  0  0  0  0  0  0
  1  2  2  0
  2  3  1  0
  2  4  1  0
  4  5  2  0
  5  6  1  0
  6  7  2  0
  7  8  1  0
  8  9  2  0
  9 10  1  0
  9 11  1  0
 11 12  2  0
 12 13  1  0
 13 14  2  0
 14 15  1  0
  7 16  1  0
 16 17  2  0
 17  4  1  0
 14  8  1  0
M  CHG  1   3  -1
M  END
>  <shape_align_shape_tanimoto>  (2) 
0.43081834975029892

>  <shape_align_color_tanimoto>  (2) 
0.068915974767608176

>  <metric>  (2) 
color

>  <metric_score>  (2) 
0.069

>  <template_pid>  (2) 
2F7I

>  <template_shape_score>  (2) 
0.431

>  <template_color_score>  (2) 
0.069

>  <template_combo_score>  (2) 
0.250

$$$$
2F7I_combo_pose
     RDKit          3D

 17 18  0  0  0  0  0  0  0  0999 V2000
   46.7149   -3.3250   -6.8819 O   0  0  0  0  0  0  0  0  0  0  0  0
   47.0893   -3.5913   -5.7020 C   0  0  0  0  0  0  0  0  0  0  0  0
   47.0003   -4.9269   -5.3155 O   0  0  0  0  0  0  0  0  0  0  0  0
   47.5864   -2.5639   -4.7937 C   0  0  0  0  0  0  0  0  0  0  0  0
   47.6398   -1.2654   -5.2624 C   0  0  0  0  0  0  0  0  0  0  0  0
   48.1127   -0.2919   -4.3964 C   0  0  0  0  0  0  0  0  0  0  0  0
   48.5229   -0.5760   -3.1072 C   0  0  0  0  0  0  0  0  0  0  0  0
   49.0199    0.4684   -2.2071 C   0  0  0  0  0  0  0  0  0  0  0  0
   50.3718    0.7796   -2.1722 C   0  0  0  0  0  0  0  0  0  0  0  0
   51.2773    0.1305   -2.9669 F   0  0  0  0  0  0  0  0  0  0  0  0
   50.8047    1.7665   -1.3144 C   0  0  0  0  0  0  0  0  0  0  0  0
   49.9223    2.4616   -0.4803 C   0  0  0  0  0  0  0  0  0  0  0  0
   48.5714    2.1358   -0.5294 C   0  0  0  0  0  0  0  0  0  0  0  0
   48.1136    1.1362   -1.3944 C   0  0  0  0  0  0  0  0  0  0  0  0
   46.7869    0.8613   -1.3997 F   0  0  0  0  0  0  0  0  0  0  0  0
   48.4479   -1.9064   -2.6838 C   0  0  0  0  0  0  0  0  0  0  0  0
   47.9827   -2.9048   -3.5164 C   0  0  0  0  0  0  0  0  0  0  0  0
  1  2  2  0
  2  3  1  0
  2  4  1  0
  4  5  2  0
  5  6  1  0
  6  7  2  0
  7  8  1  0
  8  9  2  0
  9 10  1  0
  9 11  1  0
 11 12  2  0
 12 13  1  0
 13 14  2  0
 14 15  1  0
  7 16  1  0
 16 17  2  0
 17  4  1  0
 14  8  1  0
M  CHG  1   3  -1
M  END
>  <shape_align_shape_tanimoto>  (3) 
0.43970833804043213

>  <shape_align_color_tanimoto>  (3) 
0.063897706631533713

>  <metric>  (3) 
combo

>  <metric_score>  (3) 
0.252

>  <template_pid>  (3) 
2F7I

>  <template_shape_score>  (3) 
0.440

>  <template_color_score>  (3) 
0.064

>  <template_combo_score>  (3) 
0.252

$$$$
