3JUO_shape_pose
     RDKit          3D

 17 18  0  0  0  0  0  0  0  0999 V2000
   63.2237  102.3898  116.3378 O   0  0  0  0  0  0  0  0  0  0  0  0
   63.0527  103.6149  116.1617 C   0  0  0  0  0  0  0  0  0  0  0  0
   64.2064  104.3982  116.3336 O   0  0  0  0  0  0  0  0  0  0  0  0
   61.8162  104.2742  115.8092 C   0  0  0  0  0  0  0  0  0  0  0  0
   61.8449  105.6560  115.6538 C   0  0  0  0  0  0  0  0  0  0  0  0
   60.7449  106.4055  115.3159 C   0  0  0  0  0  0  0  0  0  0  0  0
   60.8617  108.3106  115.1188 Br  0  0  0  0  0  0  0  0  0  0  0  0
   59.5457  105.7733  115.1178 C   0  0  0  0  0  0  0  0  0  0  0  0
   59.5111  104.3938  115.2721 C   0  0  0  0  0  0  0  0  0  0  0  0
   60.6140  103.6437  115.6102 C   0  0  0  0  0  0  0  0  0  0  0  0
   60.4845  102.2397  115.7696 N   0  0  0  0  0  0  0  0  0  0  0  0
   59.2102  101.6001  115.4886 C   0  0  2  0  0  0  0  0  0  0  0  0
   59.1996  100.1481  115.9034 C   0  0  0  0  0  0  0  0  0  0  0  0
   58.3410   99.2899  115.0295 C   0  0  0  0  0  0  0  0  0  0  0  0
   57.3409   99.9662  114.1818 C   0  0  0  0  0  0  0  0  0  0  0  0
   57.5791  101.3262  113.8305 N   0  0  0  0  0  0  0  0  0  0  0  0
   58.9998  101.5847  113.9725 C   0  0  0  0  0  0  0  0  0  0  0  0
  1  2  2  0
  2  3  1  0
  2  4  1  0
  4  5  2  0
  5  6  1  0
  6  7  1  0
  6  8  2  0
  8  9  1  0
  9 10  2  0
 10 11  1  0
 12 11  1  6
 12 13  1  0
 13 14  1  0
 14 15  1  0
 15 16  1  0
 16 17  1  0
 10  4  1  0
 17 12  1  0
M  CHG  2   3  -1  16   1
M  END
>  <shape_align_shape_tanimoto>  (1) 
0.70574386730496552

>  <shape_align_color_tanimoto>  (1) 
0.066722731661649909

>  <metric>  (1) 
shape

>  <metric_score>  (1) 
0.706

>  <template_pid>  (1) 
3JUO

>  <template_shape_score>  (1) 
0.706

>  <template_color_score>  (1) 
0.067

>  <template_combo_score>  (1) 
0.386

$$$$
3JUO_color_pose
     RDKit          3D

 17 18  0  0  0  0  0  0  0  0999 V2000
   62.6303  102.5401  116.5630 O   0  0  0  0  0  0  0  0  0  0  0  0
   61.9710  103.3743  115.8529 C   0  0  0  0  0  0  0  0  0  0  0  0
   62.6683  104.5270  115.6242 O   0  0  0  0  0  0  0  0  0  0  0  0
   60.6616  102.9643  115.4291 C   0  0  0  0  0  0  0  0  0  0  0  0
   60.3300  101.6252  115.7068 C   0  0  0  0  0  0  0  0  0  0  0  0
   59.1838  101.0181  115.2764 C   0  0  0  0  0  0  0  0  0  0  0  0
   58.8023   99.1985  115.6929 Br  0  0  0  0  0  0  0  0  0  0  0  0
   58.3104  101.7522  114.5346 C   0  0  0  0  0  0  0  0  0  0  0  0
   58.6162  103.0501  114.2597 C   0  0  0  0  0  0  0  0  0  0  0  0
   59.7896  103.7138  114.6889 C   0  0  0  0  0  0  0  0  0  0  0  0
   59.8298  105.0806  114.4231 N   0  0  0  0  0  0  0  0  0  0  0  0
   60.5415  106.2086  114.8779 C   0  0  2  0  0  0  0  0  0  0  0  0
   60.4627  106.5078  116.3490 C   0  0  0  0  0  0  0  0  0  0  0  0
   61.4601  107.6215  116.5973 C   0  0  0  0  0  0  0  0  0  0  0  0
   61.8943  108.2878  115.3281 C   0  0  0  0  0  0  0  0  0  0  0  0
   60.8845  108.5178  114.3570 N   0  0  0  0  0  0  0  0  0  0  0  0
   59.8607  107.5110  114.2708 C   0  0  0  0  0  0  0  0  0  0  0  0
  1  2  2  0
  2  3  1  0
  2  4  1  0
  4  5  2  0
  5  6  1  0
  6  7  1  0
  6  8  2  0
  8  9  1  0
  9 10  2  0
 10 11  1  0
 12 11  1  1
 12 13  1  0
 13 14  1  0
 14 15  1  0
 15 16  1  0
 16 17  1  0
 10  4  1  0
 17 12  1  0
M  CHG  2   3  -1  16   1
M  END
>  <shape_align_shape_tanimoto>  (2) 
0.65844748019375032

>  <shape_align_color_tanimoto>  (2) 
0.080235984492162918

>  <metric>  (2) 
color

>  <metric_score>  (2) 
0.080

>  <template_pid>  (2) 
3JUO

>  <template_shape_score>  (2) 
0.658

>  <template_color_score>  (2) 
0.080

>  <template_combo_score>  (2) 
0.369

$$$$
3JUO_combo_pose
     RDKit          3D

 17 18  0  0  0  0  0  0  0  0999 V2000
   63.2237  102.3898  116.3378 O   0  0  0  0  0  0  0  0  0  0  0  0
   63.0527  103.6149  116.1617 C   0  0  0  0  0  0  0  0  0  0  0  0
   64.2064  104.3982  116.3336 O   0  0  0  0  0  0  0  0  0  0  0  0
   61.8162  104.2742  115.8092 C   0  0  0  0  0  0  0  0  0  0  0  0
   61.8449  105.6560  115.6538 C   0  0  0  0  0  0  0  0  0  0  0  0
   60.7449  106.4055  115.3159 C   0  0  0  0  0  0  0  0  0  0  0  0
   60.8617  108.3106  115.1188 Br  0  0  0  0  0  0  0  0  0  0  0  0
   59.5457  105.7733  115.1178 C   0  0  0  0  0  0  0  0  0  0  0  0
   59.5111  104.3938  115.2721 C   0  0  0  0  0  0  0  0  0  0  0  0
   60.6140  103.6437  115.6102 C   0  0  0  0  0  0  0  0  0  0  0  0
   60.4845  102.2397  115.7696 N   0  0  0  0  0  0  0  0  0  0  0  0
   59.2102  101.6001  115.4886 C   0  0  2  0  0  0  0  0  0  0  0  0
   59.1996  100.1481  115.9034 C   0  0  0  0  0  0  0  0  0  0  0  0
   58.3410   99.2899  115.0295 C   0  0  0  0  0  0  0  0  0  0  0  0
   57.3409   99.9662  114.1818 C   0  0  0  0  0  0  0  0  0  0  0  0
   57.5791  101.3262  113.8305 N   0  0  0  0  0  0  0  0  0  0  0  0
   58.9998  101.5847  113.9725 C   0  0  0  0  0  0  0  0  0  0  0  0
  1  2  2  0
  2  3  1  0
  2  4  1  0
  4  5  2  0
  5  6  1  0
  6  7  1  0
  6  8  2  0
  8  9  1  0
  9 10  2  0
 10 11  1  0
 12 11  1  6
 12 13  1  0
 13 14  1  0
 14 15  1  0
 15 16  1  0
 16 17  1  0
 10  4  1  0
 17 12  1  0
M  CHG  2   3  -1  16   1
M  END
>  <shape_align_shape_tanimoto>  (3) 
0.70574386730496552

>  <shape_align_color_tanimoto>  (3) 
0.066722731661649909

>  <metric>  (3) 
combo

>  <metric_score>  (3) 
0.386

>  <template_pid>  (3) 
3JUO

>  <template_shape_score>  (3) 
0.706

>  <template_color_score>  (3) 
0.067

>  <template_combo_score>  (3) 
0.386

$$$$
