5VSJ_shape_pose
     RDKit          3D

 28 29  0  0  0  0  0  0  0  0999 V2000
  -15.0970   36.7514  -37.6942 O   0  0  0  0  0  0  0  0  0  0  0  0
  -15.6276   38.1533  -37.7568 P   0  0  0  0  0  0  0  0  0  0  0  0
  -15.1492   38.8071  -39.2498 O   0  0  0  0  0  0  0  0  0  0  0  0
  -17.3322   38.0289  -37.8439 O   0  0  0  0  0  0  0  0  0  0  0  0
  -15.1521   39.1942  -36.3793 C   0  0  0  0  0  0  0  0  0  0  0  0
  -14.3629   38.5106  -35.3309 C   0  0  0  0  0  0  0  0  0  0  0  0
  -14.9964   37.4052  -34.6937 N   0  0  2  0  0  0  0  0  0  0  0  0
  -16.2911   37.6456  -34.1589 C   0  0  2  0  0  0  0  0  0  0  0  0
  -16.3615   38.8240  -33.2173 C   0  0  0  0  0  0  0  0  0  0  0  0
  -17.6642   38.9835  -32.7437 O   0  0  0  0  0  0  0  0  0  0  0  0
  -16.5255   36.3624  -33.3809 C   0  0  1  0  0  0  0  0  0  0  0  0
  -16.6651   35.3222  -34.3185 O   0  0  0  0  0  0  0  0  0  0  0  0
  -15.1861   36.1827  -32.6728 C   0  0  2  0  0  0  0  0  0  0  0  0
  -15.2245   36.5556  -31.3516 O   0  0  0  0  0  0  0  0  0  0  0  0
  -14.8446   35.5073  -30.4874 C   0  0  1  0  0  0  0  0  0  0  0  0
  -13.8314   36.0009  -29.7047 O   0  0  0  0  0  0  0  0  0  0  0  0
  -13.2976   35.1384  -28.7857 C   0  0  2  0  0  0  0  0  0  0  0  0
  -12.2241   34.2439  -29.3477 C   0  0  0  0  0  0  0  0  0  0  0  0
  -11.1759   35.0170  -29.8423 O   0  0  0  0  0  0  0  0  0  0  0  0
  -14.3002   34.3470  -28.0068 C   0  0  1  0  0  0  0  0  0  0  0  0
  -14.0020   34.3067  -26.6433 O   0  0  0  0  0  0  0  0  0  0  0  0
  -15.6553   35.0028  -28.1517 C   0  0  2  0  0  0  0  0  0  0  0  0
  -16.6339   34.2300  -27.5297 O   0  0  0  0  0  0  0  0  0  0  0  0
  -16.0425   35.2147  -29.5812 C   0  0  1  0  0  0  0  0  0  0  0  0
  -16.9842   36.2428  -29.6190 O   0  0  0  0  0  0  0  0  0  0  0  0
  -14.2428   37.0105  -33.5189 C   0  0  1  0  0  0  0  0  0  0  0  0
  -13.0208   36.1942  -33.8900 C   0  0  0  0  0  0  0  0  0  0  0  0
  -13.4391   35.0555  -34.5590 O   0  0  0  0  0  0  0  0  0  0  0  0
  1  2  2  0
  2  3  1  0
  2  4  1  0
  2  5  1  0
  5  6  1  0
  7  6  1  1
  7  8  1  0
  8  9  1  1
  9 10  1  0
  8 11  1  0
 11 12  1  6
 11 13  1  0
 13 14  1  1
 15 14  1  6
 15 16  1  0
 16 17  1  0
 17 18  1  6
 18 19  1  0
 17 20  1  0
 20 21  1  1
 20 22  1  0
 22 23  1  6
 22 24  1  0
 24 25  1  1
 13 26  1  0
 26 27  1  6
 27 28  1  0
 26  7  1  0
 24 15  1  0
M  CHG  1   7   1
M  END
>  <shape_align_shape_tanimoto>  (1) 
0.73141006650815343

>  <shape_align_color_tanimoto>  (1) 
0.20431995498692365

>  <metric>  (1) 
shape

>  <metric_score>  (1) 
0.731

>  <template_pid>  (1) 
5VSJ

>  <template_shape_score>  (1) 
0.731

>  <template_color_score>  (1) 
0.204

>  <template_combo_score>  (1) 
0.468

$$$$
5VSJ_color_pose
     RDKit          3D

 28 29  0  0  0  0  0  0  0  0999 V2000
  -13.2388   41.9134  -34.8977 O   0  0  0  0  0  0  0  0  0  0  0  0
  -13.5933   41.1355  -36.1476 P   0  0  0  0  0  0  0  0  0  0  0  0
  -14.9810   41.7136  -36.8887 O   0  0  0  0  0  0  0  0  0  0  0  0
  -12.3018   41.3069  -37.2330 O   0  0  0  0  0  0  0  0  0  0  0  0
  -13.7538   39.3712  -35.6669 C   0  0  0  0  0  0  0  0  0  0  0  0
  -15.0981   39.0800  -35.1141 C   0  0  0  0  0  0  0  0  0  0  0  0
  -15.3520   37.7337  -34.7019 N   0  0  2  0  0  0  0  0  0  0  0  0
  -16.6714   37.6062  -34.1761 C   0  0  2  0  0  0  0  0  0  0  0  0
  -17.1225   38.7170  -33.2707 C   0  0  0  0  0  0  0  0  0  0  0  0
  -16.3724   38.9152  -32.1456 O   0  0  0  0  0  0  0  0  0  0  0  0
  -16.6363   36.2947  -33.4345 C   0  0  1  0  0  0  0  0  0  0  0  0
  -16.8545   35.2881  -34.3752 O   0  0  0  0  0  0  0  0  0  0  0  0
  -15.2238   36.2598  -32.9033 C   0  0  2  0  0  0  0  0  0  0  0  0
  -15.2599   36.6168  -31.5641 O   0  0  0  0  0  0  0  0  0  0  0  0
  -14.8656   35.6389  -30.6875 C   0  0  1  0  0  0  0  0  0  0  0  0
  -13.8131   36.1418  -29.9436 O   0  0  0  0  0  0  0  0  0  0  0  0
  -13.2940   35.2764  -29.0136 C   0  0  2  0  0  0  0  0  0  0  0  0
  -12.1481   34.4929  -29.6188 C   0  0  0  0  0  0  0  0  0  0  0  0
  -11.1878   35.4319  -30.0108 O   0  0  0  0  0  0  0  0  0  0  0  0
  -14.3213   34.3851  -28.3746 C   0  0  1  0  0  0  0  0  0  0  0  0
  -13.9804   34.1143  -27.0455 O   0  0  0  0  0  0  0  0  0  0  0  0
  -15.6404   35.1378  -28.3578 C   0  0  2  0  0  0  0  0  0  0  0  0
  -16.6149   34.3590  -27.7245 O   0  0  0  0  0  0  0  0  0  0  0  0
  -16.0698   35.3388  -29.7860 C   0  0  1  0  0  0  0  0  0  0  0  0
  -17.0107   36.3492  -29.8228 O   0  0  0  0  0  0  0  0  0  0  0  0
  -14.4240   37.1793  -33.7786 C   0  0  1  0  0  0  0  0  0  0  0  0
  -13.4210   36.2828  -34.5223 C   0  0  0  0  0  0  0  0  0  0  0  0
  -14.0822   35.2428  -35.1701 O   0  0  0  0  0  0  0  0  0  0  0  0
  1  2  2  0
  2  3  1  0
  2  4  1  0
  2  5  1  0
  5  6  1  0
  7  6  1  1
  7  8  1  0
  8  9  1  1
  9 10  1  0
  8 11  1  0
 11 12  1  6
 11 13  1  0
 13 14  1  1
 15 14  1  6
 15 16  1  0
 16 17  1  0
 17 18  1  6
 18 19  1  0
 17 20  1  0
 20 21  1  1
 20 22  1  0
 22 23  1  1
 22 24  1  0
 24 25  1  1
 13 26  1  0
 26 27  1  6
 27 28  1  0
 26  7  1  0
 24 15  1  0
M  CHG  1   7   1
M  END
>  <shape_align_shape_tanimoto>  (2) 
0.69556142592543013

>  <shape_align_color_tanimoto>  (2) 
0.27230691112418537

>  <metric>  (2) 
color

>  <metric_score>  (2) 
0.272

>  <template_pid>  (2) 
5VSJ

>  <template_shape_score>  (2) 
0.696

>  <template_color_score>  (2) 
0.272

>  <template_combo_score>  (2) 
0.484

$$$$
5VSJ_combo_pose
     RDKit          3D

 28 29  0  0  0  0  0  0  0  0999 V2000
  -13.2388   41.9134  -34.8977 O   0  0  0  0  0  0  0  0  0  0  0  0
  -13.5933   41.1355  -36.1476 P   0  0  0  0  0  0  0  0  0  0  0  0
  -14.9810   41.7136  -36.8887 O   0  0  0  0  0  0  0  0  0  0  0  0
  -12.3018   41.3069  -37.2330 O   0  0  0  0  0  0  0  0  0  0  0  0
  -13.7538   39.3712  -35.6669 C   0  0  0  0  0  0  0  0  0  0  0  0
  -15.0981   39.0800  -35.1141 C   0  0  0  0  0  0  0  0  0  0  0  0
  -15.3520   37.7337  -34.7019 N   0  0  2  0  0  0  0  0  0  0  0  0
  -16.6714   37.6062  -34.1761 C   0  0  2  0  0  0  0  0  0  0  0  0
  -17.1225   38.7170  -33.2707 C   0  0  0  0  0  0  0  0  0  0  0  0
  -16.3724   38.9152  -32.1456 O   0  0  0  0  0  0  0  0  0  0  0  0
  -16.6363   36.2947  -33.4345 C   0  0  1  0  0  0  0  0  0  0  0  0
  -16.8545   35.2881  -34.3752 O   0  0  0  0  0  0  0  0  0  0  0  0
  -15.2238   36.2598  -32.9033 C   0  0  2  0  0  0  0  0  0  0  0  0
  -15.2599   36.6168  -31.5641 O   0  0  0  0  0  0  0  0  0  0  0  0
  -14.8656   35.6389  -30.6875 C   0  0  1  0  0  0  0  0  0  0  0  0
  -13.8131   36.1418  -29.9436 O   0  0  0  0  0  0  0  0  0  0  0  0
  -13.2940   35.2764  -29.0136 C   0  0  2  0  0  0  0  0  0  0  0  0
  -12.1481   34.4929  -29.6188 C   0  0  0  0  0  0  0  0  0  0  0  0
  -11.1878   35.4319  -30.0108 O   0  0  0  0  0  0  0  0  0  0  0  0
  -14.3213   34.3851  -28.3746 C   0  0  1  0  0  0  0  0  0  0  0  0
  -13.9804   34.1143  -27.0455 O   0  0  0  0  0  0  0  0  0  0  0  0
  -15.6404   35.1378  -28.3578 C   0  0  2  0  0  0  0  0  0  0  0  0
  -16.6149   34.3590  -27.7245 O   0  0  0  0  0  0  0  0  0  0  0  0
  -16.0698   35.3388  -29.7860 C   0  0  1  0  0  0  0  0  0  0  0  0
  -17.0107   36.3492  -29.8228 O   0  0  0  0  0  0  0  0  0  0  0  0
  -14.4240   37.1793  -33.7786 C   0  0  1  0  0  0  0  0  0  0  0  0
  -13.4210   36.2828  -34.5223 C   0  0  0  0  0  0  0  0  0  0  0  0
  -14.0822   35.2428  -35.1701 O   0  0  0  0  0  0  0  0  0  0  0  0
  1  2  2  0
  2  3  1  0
  2  4  1  0
  2  5  1  0
  5  6  1  0
  7  6  1  1
  7  8  1  0
  8  9  1  1
  9 10  1  0
  8 11  1  0
 11 12  1  6
 11 13  1  0
 13 14  1  1
 15 14  1  6
 15 16  1  0
 16 17  1  0
 17 18  1  6
 18 19  1  0
 17 20  1  0
 20 21  1  1
 20 22  1  0
 22 23  1  1
 22 24  1  0
 24 25  1  1
 13 26  1  0
 26 27  1  6
 27 28  1  0
 26  7  1  0
 24 15  1  0
M  CHG  1   7   1
M  END
>  <shape_align_shape_tanimoto>  (3) 
0.69556142592543013

>  <shape_align_color_tanimoto>  (3) 
0.27230691112418537

>  <metric>  (3) 
combo

>  <metric_score>  (3) 
0.484

>  <template_pid>  (3) 
5VSJ

>  <template_shape_score>  (3) 
0.696

>  <template_color_score>  (3) 
0.272

>  <template_combo_score>  (3) 
0.484

$$$$
