5EWA_shape_pose
     RDKit          3D

 15 16  0  0  0  0  0  0  0  0999 V2000
   -4.4539    6.4178   15.4329 C   0  0  0  0  0  0  0  0  0  0  0  0
   -5.7823    6.2713   14.7796 C   0  0  0  0  0  0  0  0  0  0  0  0
   -6.0210    5.0251   14.0232 C   0  0  0  0  0  0  0  0  0  0  0  0
   -7.1754    6.4195   15.9823 S   0  0  0  0  0  0  0  0  0  0  0  0
   -8.2475    7.4545   14.8883 C   0  0  1  0  0  0  0  0  0  0  0  0
   -8.2053    8.8287   15.4451 C   0  0  0  0  0  0  0  0  0  0  0  0
   -7.8315    9.8614   13.9688 S   0  0  0  0  0  0  0  0  0  0  0  0
   -7.8900    8.4689   12.7933 C   0  0  2  0  0  0  0  0  0  0  0  0
   -9.2393    8.4383   12.1754 C   0  0  0  0  0  0  0  0  0  0  0  0
  -10.6160    8.2425   13.3170 S   0  0  0  0  0  0  0  0  0  0  0  0
   -7.5220    7.4044   13.6610 N   0  0  1  0  0  0  0  0  0  0  0  0
   -6.1439    7.5532   14.0236 C   0  0  2  0  0  0  0  0  0  0  0  0
   -5.1796    7.9217   13.0246 C   0  0  0  0  0  0  0  0  0  0  0  0
   -4.9587    9.0704   12.5550 O   0  0  0  0  0  0  0  0  0  0  0  0
   -4.3626    6.9034   12.4787 O   0  0  0  0  0  0  0  0  0  0  0  0
  1  2  1  0
  2  3  1  0
  2  4  1  0
  4  5  1  0
  5  6  1  1
  6  7  1  0
  7  8  1  0
  8  9  1  1
  9 10  1  0
 11  8  1  6
 11 12  1  0
 12 13  1  6
 13 14  2  0
 13 15  1  0
 12  2  1  0
 11  5  1  0
M  CHG  2  11   1  15  -1
M  END
>  <shape_align_shape_tanimoto>  (1) 
0.68419518170330584

>  <shape_align_color_tanimoto>  (1) 
0.063549750726710014

>  <metric>  (1) 
shape

>  <metric_score>  (1) 
0.684

>  <template_pid>  (1) 
5EWA

>  <template_shape_score>  (1) 
0.684

>  <template_color_score>  (1) 
0.064

>  <template_combo_score>  (1) 
0.374

$$$$
5EWA_color_pose
     RDKit          3D

 15 16  0  0  0  0  0  0  0  0999 V2000
   -4.8094    5.1253   14.0008 C   0  0  0  0  0  0  0  0  0  0  0  0
   -6.0179    5.9882   13.7253 C   0  0  0  0  0  0  0  0  0  0  0  0
   -7.0364    5.1723   12.9757 C   0  0  0  0  0  0  0  0  0  0  0  0
   -5.4534    7.4287   12.7427 S   0  0  0  0  0  0  0  0  0  0  0  0
   -5.8691    8.6445   14.0446 C   0  0  1  0  0  0  0  0  0  0  0  0
   -6.2138    9.9773   13.5444 C   0  0  0  0  0  0  0  0  0  0  0  0
   -7.9747    9.7928   13.1091 S   0  0  0  0  0  0  0  0  0  0  0  0
   -8.0476    8.0073   13.5540 C   0  0  2  0  0  0  0  0  0  0  0  0
   -9.4201    7.7759   14.0861 C   0  0  0  0  0  0  0  0  0  0  0  0
  -10.5973    8.2035   12.7610 S   0  0  0  0  0  0  0  0  0  0  0  0
   -7.0293    7.9719   14.5713 N   0  0  1  0  0  0  0  0  0  0  0  0
   -6.5731    6.6698   14.9300 C   0  0  2  0  0  0  0  0  0  0  0  0
   -5.6051    6.8170   16.0419 C   0  0  0  0  0  0  0  0  0  0  0  0
   -6.0963    7.1203   17.1754 O   0  0  0  0  0  0  0  0  0  0  0  0
   -4.2432    6.6472   15.9137 O   0  0  0  0  0  0  0  0  0  0  0  0
  1  2  1  0
  2  3  1  0
  2  4  1  0
  4  5  1  0
  5  6  1  6
  6  7  1  0
  7  8  1  0
  8  9  1  1
  9 10  1  0
 11  8  1  6
 11 12  1  0
 12 13  1  1
 13 14  2  0
 13 15  1  0
 12  2  1  0
 11  5  1  0
M  CHG  2  11   1  15  -1
M  END
>  <shape_align_shape_tanimoto>  (2) 
0.62523082244056349

>  <shape_align_color_tanimoto>  (2) 
0.11368285667881671

>  <metric>  (2) 
color

>  <metric_score>  (2) 
0.114

>  <template_pid>  (2) 
5EWA

>  <template_shape_score>  (2) 
0.625

>  <template_color_score>  (2) 
0.114

>  <template_combo_score>  (2) 
0.369

$$$$
5EWA_combo_pose
     RDKit          3D

 15 16  0  0  0  0  0  0  0  0999 V2000
   -4.3206    5.4166   14.2193 C   0  0  0  0  0  0  0  0  0  0  0  0
   -5.1933    6.6270   14.1787 C   0  0  0  0  0  0  0  0  0  0  0  0
   -4.4782    7.6433   13.2745 C   0  0  0  0  0  0  0  0  0  0  0  0
   -5.4289    7.3605   15.8444 S   0  0  0  0  0  0  0  0  0  0  0  0
   -7.0024    8.1611   15.3493 C   0  0  1  0  0  0  0  0  0  0  0  0
   -6.6531    9.5303   14.8998 C   0  0  0  0  0  0  0  0  0  0  0  0
   -7.6592    9.7071   13.4094 S   0  0  0  0  0  0  0  0  0  0  0  0
   -8.2601    7.9991   13.3564 C   0  0  2  0  0  0  0  0  0  0  0  0
   -9.7500    7.9405   13.5495 C   0  0  0  0  0  0  0  0  0  0  0  0
  -10.5074    8.8979   12.2062 S   0  0  0  0  0  0  0  0  0  0  0  0
   -7.4916    7.3244   14.3646 N   0  0  1  0  0  0  0  0  0  0  0  0
   -6.5790    6.4538   13.7403 C   0  0  2  0  0  0  0  0  0  0  0  0
   -7.0097    5.0445   13.8959 C   0  0  0  0  0  0  0  0  0  0  0  0
   -6.4880    4.2115   14.6688 O   0  0  0  0  0  0  0  0  0  0  0  0
   -8.0953    4.6126   13.1071 O   0  0  0  0  0  0  0  0  0  0  0  0
  1  2  1  0
  2  3  1  0
  2  4  1  0
  4  5  1  0
  5  6  1  6
  6  7  1  0
  7  8  1  0
  8  9  1  1
  9 10  1  0
 11  8  1  6
 11 12  1  0
 12 13  1  1
 13 14  2  0
 13 15  1  0
 12  2  1  0
 11  5  1  0
M  CHG  2  11   1  15  -1
M  END
>  <shape_align_shape_tanimoto>  (3) 
0.66506094859345177

>  <shape_align_color_tanimoto>  (3) 
0.10825862556010027

>  <metric>  (3) 
combo

>  <metric_score>  (3) 
0.387

>  <template_pid>  (3) 
5EWA

>  <template_shape_score>  (3) 
0.665

>  <template_color_score>  (3) 
0.108

>  <template_combo_score>  (3) 
0.387

$$$$
