2GVF_shape_pose
     RDKit          3D

 57 61  0  0  0  0  0  0  0  0999 V2000
  -20.6481  -12.2927   11.1327 C   0  0  0  0  0  0  0  0  0  0  0  0
  -20.1268  -11.1061   12.0166 C   0  0  0  0  0  0  0  0  0  0  0  0
  -19.8698  -11.6881   13.4348 C   0  0  0  0  0  0  0  0  0  0  0  0
  -19.3562  -10.6303   14.4004 C   0  0  2  0  0  0  0  0  0  0  0  0
  -18.0551   -9.9964   13.9782 N   0  0  0  0  0  0  0  0  0  0  0  0
  -17.8511   -8.6264   14.4156 C   0  0  0  0  0  0  0  0  0  0  0  0
  -18.7889   -8.0990   15.1324 O   0  0  0  0  0  0  0  0  0  0  0  0
  -16.6455   -7.7527   14.1184 C   0  0  2  0  0  0  0  0  0  0  0  0
  -17.2000   -6.2662   14.1775 C   0  0  0  0  0  0  0  0  0  0  0  0
  -16.5307   -5.5942   12.9428 C   0  0  2  0  0  0  0  0  0  0  0  0
  -16.5995   -6.8231   11.9670 C   0  0  0  0  0  0  0  0  0  0  0  0
  -16.0006   -7.9343   12.8466 N   0  0  0  0  0  0  0  0  0  0  0  0
  -15.0047   -8.7648   12.1935 C   0  0  0  0  0  0  0  0  0  0  0  0
  -14.8562   -8.4946   10.9486 O   0  0  0  0  0  0  0  0  0  0  0  0
  -14.1739   -9.8612   12.8105 C   0  0  2  0  0  0  0  0  0  0  0  0
  -14.3062  -11.2516   12.2052 C   0  0  0  0  0  0  0  0  0  0  0  0
  -13.8808  -11.3280   10.7508 C   0  0  0  0  0  0  0  0  0  0  0  0
  -12.3777  -11.7351   10.5882 C   0  0  0  0  0  0  0  0  0  0  0  0
  -12.0857  -13.1693   11.0508 C   0  0  0  0  0  0  0  0  0  0  0  0
  -13.0852  -13.4952   12.2162 C   0  0  0  0  0  0  0  0  0  0  0  0
  -13.2848  -12.1641   12.9856 C   0  0  0  0  0  0  0  0  0  0  0  0
  -14.4090   -9.9036   14.3065 N   0  0  0  0  0  0  0  0  0  0  0  0
  -13.3138   -9.6291   15.2532 C   0  0  0  0  0  0  0  0  0  0  0  0
  -12.1913   -9.3886   14.7196 O   0  0  0  0  0  0  0  0  0  0  0  0
  -13.5044   -9.6313   16.7643 C   0  0  0  0  0  0  0  0  0  0  0  0
  -12.2044   -9.2497   17.5039 C   0  0  0  0  0  0  0  0  0  0  0  0
  -11.7468   -7.8946   16.9841 C   0  0  0  0  0  0  0  0  0  0  0  0
  -10.3986   -7.4517   17.2054 C   0  0  0  0  0  0  0  0  0  0  0  0
   -9.9295   -6.2142   16.7178 C   0  0  0  0  0  0  0  0  0  0  0  0
  -10.8365   -5.4118   15.9948 C   0  0  0  0  0  0  0  0  0  0  0  0
  -12.1788   -5.7718   15.7319 C   0  0  0  0  0  0  0  0  0  0  0  0
  -12.5957   -7.0467   16.2581 C   0  0  0  0  0  0  0  0  0  0  0  0
  -13.0505   -5.0268   15.0474 O   0  0  0  0  0  0  0  0  0  0  0  0
  -13.4288   -3.9521   14.3050 C   0  0  0  0  0  0  0  0  0  0  0  0
  -14.9789   -4.1057   13.9502 C   0  0  0  0  0  0  0  0  0  0  0  0
  -15.1582   -5.3143   13.2061 O   0  0  0  0  0  0  0  0  0  0  0  0
  -19.2533  -11.0175   15.8669 C   0  0  1  0  0  0  0  0  0  0  0  0
  -20.5456  -11.5488   16.3227 O   0  0  0  0  0  0  0  0  0  0  0  0
  -18.1921  -11.9241   16.3606 C   0  0  0  0  0  0  0  0  0  0  0  0
  -18.1656  -12.1004   17.6856 O   0  0  0  0  0  0  0  0  0  0  0  0
  -17.1762  -12.6618   15.6552 N   0  0  0  0  0  0  0  0  0  0  0  0
  -16.2543  -13.4725   16.5114 C   0  0  0  0  0  0  0  0  0  0  0  0
  -15.3004  -14.3212   15.7133 C   0  0  0  0  0  0  0  0  0  0  0  0
  -15.3563  -14.3692   14.4428 O   0  0  0  0  0  0  0  0  0  0  0  0
  -14.3040  -15.0898   16.5010 N   0  0  0  0  0  0  0  0  0  0  0  0
  -13.3161  -15.9868   15.8747 C   0  0  2  0  0  0  0  0  0  0  0  0
  -13.3914  -17.3925   16.3738 C   0  0  0  0  0  0  0  0  0  0  0  0
  -12.5153  -18.2373   15.8486 O   0  0  0  0  0  0  0  0  0  0  0  0
  -14.2788  -17.9721   17.3486 N   0  0  0  0  0  0  0  0  0  0  0  0
  -14.0654  -19.4454   17.6383 C   0  0  0  0  0  0  0  0  0  0  0  0
  -15.3611  -17.2927   18.0838 C   0  0  0  0  0  0  0  0  0  0  0  0
  -11.8617  -15.4456   16.0005 C   0  0  0  0  0  0  0  0  0  0  0  0
  -10.9893  -15.5672   14.9041 C   0  0  0  0  0  0  0  0  0  0  0  0
   -9.6490  -15.1160   14.8971 C   0  0  0  0  0  0  0  0  0  0  0  0
   -9.1961  -14.5047   16.1010 C   0  0  0  0  0  0  0  0  0  0  0  0
  -10.0571  -14.3753   17.2075 C   0  0  0  0  0  0  0  0  0  0  0  0
  -11.4119  -14.8383   17.1959 C   0  0  0  0  0  0  0  0  0  0  0  0
  1  2  1  0
  2  3  1  0
  4  3  1  6
  4  5  1  0
  5  6  1  0
  6  7  2  0
  8  6  1  6
  8  9  1  0
 10  9  1  1
 10 11  1  0
 11 12  1  0
 12 13  1  0
 13 14  2  0
 13 15  1  0
 15 16  1  6
 16 17  1  0
 17 18  1  0
 18 19  1  0
 19 20  1  0
 20 21  1  0
 15 22  1  0
 22 23  1  0
 23 24  2  0
 23 25  1  0
 25 26  1  0
 26 27  1  0
 27 28  2  0
 28 29  1  0
 29 30  2  0
 30 31  1  0
 31 32  2  0
 31 33  1  0
 33 34  1  0
 34 35  1  0
 35 36  1  0
  4 37  1  0
 37 38  1  6
 37 39  1  0
 39 40  2  0
 39 41  1  0
 41 42  1  0
 42 43  1  0
 43 44  2  0
 43 45  1  0
 46 45  1  1
 46 47  1  0
 47 48  2  0
 47 49  1  0
 49 50  1  0
 49 51  1  0
 46 52  1  0
 52 53  2  0
 53 54  1  0
 54 55  2  0
 55 56  1  0
 56 57  2  0
 12  8  1  0
 21 16  1  0
 32 27  1  0
 57 52  1  0
 36 10  1  0
M  END
>  <shape_align_shape_tanimoto>  (1) 
0.49896716489912646

>  <shape_align_color_tanimoto>  (1) 
0.02872919910592114

>  <metric>  (1) 
shape

>  <metric_score>  (1) 
0.499

>  <template_pid>  (1) 
2GVF

>  <template_shape_score>  (1) 
0.499

>  <template_color_score>  (1) 
0.029

>  <template_combo_score>  (1) 
0.264

$$$$
2GVF_color_pose
     RDKit          3D

 57 61  0  0  0  0  0  0  0  0999 V2000
  -19.9643   -7.9743   17.2091 C   0  0  0  0  0  0  0  0  0  0  0  0
  -19.9748   -7.7198   15.7287 C   0  0  0  0  0  0  0  0  0  0  0  0
  -18.7255   -8.0120   15.0261 C   0  0  0  0  0  0  0  0  0  0  0  0
  -18.1264   -9.3963   15.0394 C   0  0  2  0  0  0  0  0  0  0  0  0
  -16.8933   -9.1580   14.2223 N   0  0  0  0  0  0  0  0  0  0  0  0
  -15.5931   -9.2854   14.7643 C   0  0  0  0  0  0  0  0  0  0  0  0
  -15.3148   -9.6027   15.9257 O   0  0  0  0  0  0  0  0  0  0  0  0
  -14.4814   -8.9905   13.8090 C   0  0  2  0  0  0  0  0  0  0  0  0
  -14.3355  -10.1751   12.8905 C   0  0  0  0  0  0  0  0  0  0  0  0
  -12.9958  -10.7225   13.2146 C   0  0  2  0  0  0  0  0  0  0  0  0
  -12.6403  -10.0876   14.4926 C   0  0  0  0  0  0  0  0  0  0  0  0
  -13.2519   -8.7271   14.4254 N   0  0  0  0  0  0  0  0  0  0  0  0
  -12.5482   -7.6539   14.9758 C   0  0  0  0  0  0  0  0  0  0  0  0
  -11.3586   -7.9649   15.2682 O   0  0  0  0  0  0  0  0  0  0  0  0
  -12.9594   -6.2665   15.2422 C   0  0  2  0  0  0  0  0  0  0  0  0
  -14.0718   -5.6918   14.5053 C   0  0  0  0  0  0  0  0  0  0  0  0
  -14.4442   -4.2801   15.0554 C   0  0  0  0  0  0  0  0  0  0  0  0
  -15.7169   -3.8901   14.3092 C   0  0  0  0  0  0  0  0  0  0  0  0
  -15.2627   -3.5649   12.8919 C   0  0  0  0  0  0  0  0  0  0  0  0
  -14.8541   -4.9010   12.2684 C   0  0  0  0  0  0  0  0  0  0  0  0
  -13.6985   -5.5001   13.0390 C   0  0  0  0  0  0  0  0  0  0  0  0
  -11.7945   -5.3720   15.2024 N   0  0  0  0  0  0  0  0  0  0  0  0
  -10.6205   -5.5100   15.9600 C   0  0  0  0  0  0  0  0  0  0  0  0
  -10.5073   -6.3922   16.7754 O   0  0  0  0  0  0  0  0  0  0  0  0
   -9.4637   -4.5585   15.7566 C   0  0  0  0  0  0  0  0  0  0  0  0
   -8.2596   -5.3845   15.2776 C   0  0  0  0  0  0  0  0  0  0  0  0
   -8.5664   -5.9181   13.9167 C   0  0  0  0  0  0  0  0  0  0  0  0
   -8.8962   -4.9505   12.9697 C   0  0  0  0  0  0  0  0  0  0  0  0
   -9.2228   -5.2412   11.6696 C   0  0  0  0  0  0  0  0  0  0  0  0
   -9.2154   -6.5696   11.3122 C   0  0  0  0  0  0  0  0  0  0  0  0
   -8.8898   -7.5799   12.2309 C   0  0  0  0  0  0  0  0  0  0  0  0
   -8.5664   -7.2298   13.5378 C   0  0  0  0  0  0  0  0  0  0  0  0
   -8.9204   -8.8517   11.7318 O   0  0  0  0  0  0  0  0  0  0  0  0
  -10.0843   -9.5757   11.3178 C   0  0  0  0  0  0  0  0  0  0  0  0
  -11.0217   -9.7354   12.5258 C   0  0  0  0  0  0  0  0  0  0  0  0
  -12.1275  -10.4312   12.1560 O   0  0  0  0  0  0  0  0  0  0  0  0
  -18.8735  -10.4177   14.2449 C   0  0  1  0  0  0  0  0  0  0  0  0
  -17.9670  -11.5171   13.9983 O   0  0  0  0  0  0  0  0  0  0  0  0
  -19.9827  -11.0926   14.9813 C   0  0  0  0  0  0  0  0  0  0  0  0
  -20.9344  -10.5197   15.5388 O   0  0  0  0  0  0  0  0  0  0  0  0
  -20.0262  -12.5479   15.0992 N   0  0  0  0  0  0  0  0  0  0  0  0
  -21.1527  -13.1090   15.8571 C   0  0  0  0  0  0  0  0  0  0  0  0
  -21.0147  -12.6198   17.2717 C   0  0  0  0  0  0  0  0  0  0  0  0
  -19.9862  -11.9001   17.4815 O   0  0  0  0  0  0  0  0  0  0  0  0
  -21.9525  -12.9362   18.2863 N   0  0  0  0  0  0  0  0  0  0  0  0
  -21.7511  -12.4639   19.5980 C   0  0  2  0  0  0  0  0  0  0  0  0
  -22.5125  -11.2911   19.9690 C   0  0  0  0  0  0  0  0  0  0  0  0
  -22.3653  -10.9248   21.1994 O   0  0  0  0  0  0  0  0  0  0  0  0
  -23.3728  -10.5038   19.1983 N   0  0  0  0  0  0  0  0  0  0  0  0
  -23.7353  -10.6420   17.8265 C   0  0  0  0  0  0  0  0  0  0  0  0
  -24.0070   -9.3435   19.8874 C   0  0  0  0  0  0  0  0  0  0  0  0
  -20.2548  -12.2516   19.8320 C   0  0  0  0  0  0  0  0  0  0  0  0
  -19.4912  -13.4040   19.6241 C   0  0  0  0  0  0  0  0  0  0  0  0
  -18.1066  -13.3035   19.8048 C   0  0  0  0  0  0  0  0  0  0  0  0
  -17.5600  -12.1005   20.1719 C   0  0  0  0  0  0  0  0  0  0  0  0
  -18.3466  -10.9676   20.3714 C   0  0  0  0  0  0  0  0  0  0  0  0
  -19.7395  -11.0469   20.1952 C   0  0  0  0  0  0  0  0  0  0  0  0
  1  2  1  0
  2  3  1  0
  4  3  1  6
  4  5  1  0
  5  6  1  0
  6  7  2  0
  8  6  1  1
  8  9  1  0
 10  9  1  6
 10 11  1  0
 11 12  1  0
 12 13  1  0
 13 14  2  0
 13 15  1  0
 15 16  1  6
 16 17  1  0
 17 18  1  0
 18 19  1  0
 19 20  1  0
 20 21  1  0
 15 22  1  0
 22 23  1  0
 23 24  2  0
 23 25  1  0
 25 26  1  0
 26 27  1  0
 27 28  2  0
 28 29  1  0
 29 30  2  0
 30 31  1  0
 31 32  2  0
 31 33  1  0
 33 34  1  0
 34 35  1  0
 35 36  1  0
  4 37  1  0
 37 38  1  1
 37 39  1  0
 39 40  2  0
 39 41  1  0
 41 42  1  0
 42 43  1  0
 43 44  2  0
 43 45  1  0
 46 45  1  6
 46 47  1  0
 47 48  2  0
 47 49  1  0
 49 50  1  0
 49 51  1  0
 46 52  1  0
 52 53  2  0
 53 54  1  0
 54 55  2  0
 55 56  1  0
 56 57  2  0
 12  8  1  0
 21 16  1  0
 32 27  1  0
 57 52  1  0
 36 10  1  0
M  END
>  <shape_align_shape_tanimoto>  (2) 
0.377084137094295

>  <shape_align_color_tanimoto>  (2) 
0.089945451227001871

>  <metric>  (2) 
color

>  <metric_score>  (2) 
0.090

>  <template_pid>  (2) 
2GVF

>  <template_shape_score>  (2) 
0.377

>  <template_color_score>  (2) 
0.090

>  <template_combo_score>  (2) 
0.234

$$$$
2GVF_combo_pose
     RDKit          3D

 57 61  0  0  0  0  0  0  0  0999 V2000
  -20.6481  -12.2927   11.1327 C   0  0  0  0  0  0  0  0  0  0  0  0
  -20.1268  -11.1061   12.0166 C   0  0  0  0  0  0  0  0  0  0  0  0
  -19.8698  -11.6881   13.4348 C   0  0  0  0  0  0  0  0  0  0  0  0
  -19.3562  -10.6303   14.4004 C   0  0  2  0  0  0  0  0  0  0  0  0
  -18.0551   -9.9964   13.9782 N   0  0  0  0  0  0  0  0  0  0  0  0
  -17.8511   -8.6264   14.4156 C   0  0  0  0  0  0  0  0  0  0  0  0
  -18.7889   -8.0990   15.1324 O   0  0  0  0  0  0  0  0  0  0  0  0
  -16.6455   -7.7527   14.1184 C   0  0  2  0  0  0  0  0  0  0  0  0
  -17.2000   -6.2662   14.1775 C   0  0  0  0  0  0  0  0  0  0  0  0
  -16.5307   -5.5942   12.9428 C   0  0  2  0  0  0  0  0  0  0  0  0
  -16.5995   -6.8231   11.9670 C   0  0  0  0  0  0  0  0  0  0  0  0
  -16.0006   -7.9343   12.8466 N   0  0  0  0  0  0  0  0  0  0  0  0
  -15.0047   -8.7648   12.1935 C   0  0  0  0  0  0  0  0  0  0  0  0
  -14.8562   -8.4946   10.9486 O   0  0  0  0  0  0  0  0  0  0  0  0
  -14.1739   -9.8612   12.8105 C   0  0  2  0  0  0  0  0  0  0  0  0
  -14.3062  -11.2516   12.2052 C   0  0  0  0  0  0  0  0  0  0  0  0
  -13.8808  -11.3280   10.7508 C   0  0  0  0  0  0  0  0  0  0  0  0
  -12.3777  -11.7351   10.5882 C   0  0  0  0  0  0  0  0  0  0  0  0
  -12.0857  -13.1693   11.0508 C   0  0  0  0  0  0  0  0  0  0  0  0
  -13.0852  -13.4952   12.2162 C   0  0  0  0  0  0  0  0  0  0  0  0
  -13.2848  -12.1641   12.9856 C   0  0  0  0  0  0  0  0  0  0  0  0
  -14.4090   -9.9036   14.3065 N   0  0  0  0  0  0  0  0  0  0  0  0
  -13.3138   -9.6291   15.2532 C   0  0  0  0  0  0  0  0  0  0  0  0
  -12.1913   -9.3886   14.7196 O   0  0  0  0  0  0  0  0  0  0  0  0
  -13.5044   -9.6313   16.7643 C   0  0  0  0  0  0  0  0  0  0  0  0
  -12.2044   -9.2497   17.5039 C   0  0  0  0  0  0  0  0  0  0  0  0
  -11.7468   -7.8946   16.9841 C   0  0  0  0  0  0  0  0  0  0  0  0
  -10.3986   -7.4517   17.2054 C   0  0  0  0  0  0  0  0  0  0  0  0
   -9.9295   -6.2142   16.7178 C   0  0  0  0  0  0  0  0  0  0  0  0
  -10.8365   -5.4118   15.9948 C   0  0  0  0  0  0  0  0  0  0  0  0
  -12.1788   -5.7718   15.7319 C   0  0  0  0  0  0  0  0  0  0  0  0
  -12.5957   -7.0467   16.2581 C   0  0  0  0  0  0  0  0  0  0  0  0
  -13.0505   -5.0268   15.0474 O   0  0  0  0  0  0  0  0  0  0  0  0
  -13.4288   -3.9521   14.3050 C   0  0  0  0  0  0  0  0  0  0  0  0
  -14.9789   -4.1057   13.9502 C   0  0  0  0  0  0  0  0  0  0  0  0
  -15.1582   -5.3143   13.2061 O   0  0  0  0  0  0  0  0  0  0  0  0
  -19.2533  -11.0175   15.8669 C   0  0  1  0  0  0  0  0  0  0  0  0
  -20.5456  -11.5488   16.3227 O   0  0  0  0  0  0  0  0  0  0  0  0
  -18.1921  -11.9241   16.3606 C   0  0  0  0  0  0  0  0  0  0  0  0
  -18.1656  -12.1004   17.6856 O   0  0  0  0  0  0  0  0  0  0  0  0
  -17.1762  -12.6618   15.6552 N   0  0  0  0  0  0  0  0  0  0  0  0
  -16.2543  -13.4725   16.5114 C   0  0  0  0  0  0  0  0  0  0  0  0
  -15.3004  -14.3212   15.7133 C   0  0  0  0  0  0  0  0  0  0  0  0
  -15.3563  -14.3692   14.4428 O   0  0  0  0  0  0  0  0  0  0  0  0
  -14.3040  -15.0898   16.5010 N   0  0  0  0  0  0  0  0  0  0  0  0
  -13.3161  -15.9868   15.8747 C   0  0  2  0  0  0  0  0  0  0  0  0
  -13.3914  -17.3925   16.3738 C   0  0  0  0  0  0  0  0  0  0  0  0
  -12.5153  -18.2373   15.8486 O   0  0  0  0  0  0  0  0  0  0  0  0
  -14.2788  -17.9721   17.3486 N   0  0  0  0  0  0  0  0  0  0  0  0
  -14.0654  -19.4454   17.6383 C   0  0  0  0  0  0  0  0  0  0  0  0
  -15.3611  -17.2927   18.0838 C   0  0  0  0  0  0  0  0  0  0  0  0
  -11.8617  -15.4456   16.0005 C   0  0  0  0  0  0  0  0  0  0  0  0
  -10.9893  -15.5672   14.9041 C   0  0  0  0  0  0  0  0  0  0  0  0
   -9.6490  -15.1160   14.8971 C   0  0  0  0  0  0  0  0  0  0  0  0
   -9.1961  -14.5047   16.1010 C   0  0  0  0  0  0  0  0  0  0  0  0
  -10.0571  -14.3753   17.2075 C   0  0  0  0  0  0  0  0  0  0  0  0
  -11.4119  -14.8383   17.1959 C   0  0  0  0  0  0  0  0  0  0  0  0
  1  2  1  0
  2  3  1  0
  4  3  1  6
  4  5  1  0
  5  6  1  0
  6  7  2  0
  8  6  1  6
  8  9  1  0
 10  9  1  1
 10 11  1  0
 11 12  1  0
 12 13  1  0
 13 14  2  0
 13 15  1  0
 15 16  1  6
 16 17  1  0
 17 18  1  0
 18 19  1  0
 19 20  1  0
 20 21  1  0
 15 22  1  0
 22 23  1  0
 23 24  2  0
 23 25  1  0
 25 26  1  0
 26 27  1  0
 27 28  2  0
 28 29  1  0
 29 30  2  0
 30 31  1  0
 31 32  2  0
 31 33  1  0
 33 34  1  0
 34 35  1  0
 35 36  1  0
  4 37  1  0
 37 38  1  6
 37 39  1  0
 39 40  2  0
 39 41  1  0
 41 42  1  0
 42 43  1  0
 43 44  2  0
 43 45  1  0
 46 45  1  1
 46 47  1  0
 47 48  2  0
 47 49  1  0
 49 50  1  0
 49 51  1  0
 46 52  1  0
 52 53  2  0
 53 54  1  0
 54 55  2  0
 55 56  1  0
 56 57  2  0
 12  8  1  0
 21 16  1  0
 32 27  1  0
 57 52  1  0
 36 10  1  0
M  END
>  <shape_align_shape_tanimoto>  (3) 
0.49896716489912646

>  <shape_align_color_tanimoto>  (3) 
0.02872919910592114

>  <metric>  (3) 
combo

>  <metric_score>  (3) 
0.264

>  <template_pid>  (3) 
2GVF

>  <template_shape_score>  (3) 
0.499

>  <template_color_score>  (3) 
0.029

>  <template_combo_score>  (3) 
0.264

$$$$
