4MBJ_shape_pose
     RDKit          3D

 27 29  0  0  0  0  0  0  0  0999 V2000
   -5.0383   -2.9178  -16.3013 C   0  0  0  0  0  0  0  0  0  0  0  0
   -4.6448   -3.5753  -17.5870 C   0  0  0  0  0  0  0  0  0  0  0  0
   -5.1030   -2.7996  -18.8116 C   0  0  0  0  0  0  0  0  0  0  0  0
   -4.5657   -3.6991  -20.2366 S   0  0  0  0  0  0  0  0  0  0  0  0
   -5.2245   -5.0484  -20.2343 O   0  0  0  0  0  0  0  0  0  0  0  0
   -5.0250   -3.0215  -21.5145 O   0  0  0  0  0  0  0  0  0  0  0  0
   -2.8580   -3.8703  -20.2766 N   0  0  0  0  0  0  0  0  0  0  0  0
   -1.9702   -2.7775  -20.3465 C   0  0  0  0  0  0  0  0  0  0  0  0
   -2.4889   -1.5379  -20.6232 C   0  0  0  0  0  0  0  0  0  0  0  0
   -1.6159   -0.4817  -20.6942 C   0  0  0  0  0  0  0  0  0  0  0  0
   -0.2445   -0.6749  -20.4895 C   0  0  0  0  0  0  0  0  0  0  0  0
    0.5339    0.3961  -20.5747 F   0  0  0  0  0  0  0  0  0  0  0  0
    0.2918   -1.8961  -20.2138 C   0  0  0  0  0  0  0  0  0  0  0  0
    1.6790   -2.1985  -19.9886 C   0  0  0  0  0  0  0  0  0  0  0  0
    2.0184   -3.4125  -19.7363 O   0  0  0  0  0  0  0  0  0  0  0  0
    2.7472   -1.2793  -20.0144 N   0  0  0  0  0  0  0  0  0  0  0  0
    4.0575   -1.7733  -19.7654 C   0  0  0  0  0  0  0  0  0  0  0  0
    4.4909   -1.7855  -18.4533 C   0  0  0  0  0  0  0  0  0  0  0  0
    5.7283   -2.2487  -18.1912 N   0  0  0  0  0  0  0  0  0  0  0  0
    6.5372   -2.6943  -19.1805 C   0  0  0  0  0  0  0  0  0  0  0  0
    7.7853   -3.1930  -19.1715 N   0  0  0  0  0  0  0  0  0  0  0  0
    8.1791   -3.5049  -20.4249 C   0  0  0  0  0  0  0  0  0  0  0  0
    7.1532   -3.1964  -21.2558 N   0  0  0  0  0  0  0  0  0  0  0  0
    6.1466   -2.7014  -20.5089 C   0  0  0  0  0  0  0  0  0  0  0  0
    4.8762   -2.2278  -20.7945 C   0  0  0  0  0  0  0  0  0  0  0  0
   -0.6193   -2.9616  -20.1460 C   0  0  0  0  0  0  0  0  0  0  0  0
   -0.2058   -4.2277  -19.8781 F   0  0  0  0  0  0  0  0  0  0  0  0
  1  2  1  0
  2  3  1  0
  3  4  1  0
  4  5  2  0
  4  6  2  0
  4  7  1  0
  7  8  1  0
  8  9  2  0
  9 10  1  0
 10 11  2  0
 11 12  1  0
 11 13  1  0
 13 14  1  0
 14 15  2  0
 14 16  1  0
 16 17  1  0
 17 18  2  0
 18 19  1  0
 19 20  2  0
 20 21  1  0
 21 22  2  0
 22 23  1  0
 23 24  1  0
 24 25  2  0
 13 26  2  0
 26 27  1  0
 26  8  1  0
 25 17  1  0
 24 20  1  0
M  END
>  <shape_align_shape_tanimoto>  (1) 
0.7394213973698549

>  <shape_align_color_tanimoto>  (1) 
0.037223929743142016

>  <metric>  (1) 
shape

>  <metric_score>  (1) 
0.739

>  <template_pid>  (1) 
4MBJ

>  <template_shape_score>  (1) 
0.739

>  <template_color_score>  (1) 
0.037

>  <template_combo_score>  (1) 
0.388

$$$$
4MBJ_color_pose
     RDKit          3D

 27 29  0  0  0  0  0  0  0  0999 V2000
    7.0569   -1.3108  -23.0532 C   0  0  0  0  0  0  0  0  0  0  0  0
    7.1374   -2.6613  -23.6675 C   0  0  0  0  0  0  0  0  0  0  0  0
    8.2366   -3.5053  -23.1071 C   0  0  0  0  0  0  0  0  0  0  0  0
    8.0796   -3.8971  -21.4202 S   0  0  0  0  0  0  0  0  0  0  0  0
    9.2523   -4.7714  -21.0239 O   0  0  0  0  0  0  0  0  0  0  0  0
    6.8528   -4.7847  -21.2652 O   0  0  0  0  0  0  0  0  0  0  0  0
    8.0030   -2.5778  -20.3403 N   0  0  0  0  0  0  0  0  0  0  0  0
    6.9180   -2.2617  -19.4929 C   0  0  0  0  0  0  0  0  0  0  0  0
    7.2662   -1.8037  -18.2128 C   0  0  0  0  0  0  0  0  0  0  0  0
    6.3053   -1.4482  -17.2995 C   0  0  0  0  0  0  0  0  0  0  0  0
    4.9864   -1.5553  -17.6794 C   0  0  0  0  0  0  0  0  0  0  0  0
    4.0687   -1.1854  -16.7249 F   0  0  0  0  0  0  0  0  0  0  0  0
    4.5927   -2.0026  -18.9322 C   0  0  0  0  0  0  0  0  0  0  0  0
    3.1720   -2.0621  -19.1879 C   0  0  0  0  0  0  0  0  0  0  0  0
    2.3777   -1.7072  -18.2464 O   0  0  0  0  0  0  0  0  0  0  0  0
    2.5505   -2.4742  -20.3791 N   0  0  0  0  0  0  0  0  0  0  0  0
    1.1077   -2.4495  -20.4003 C   0  0  0  0  0  0  0  0  0  0  0  0
    0.4279   -3.5858  -19.9996 C   0  0  0  0  0  0  0  0  0  0  0  0
   -0.9186   -3.5944  -20.0081 N   0  0  0  0  0  0  0  0  0  0  0  0
   -1.6237   -2.5130  -20.4011 C   0  0  0  0  0  0  0  0  0  0  0  0
   -2.9485   -2.2678  -20.5002 N   0  0  0  0  0  0  0  0  0  0  0  0
   -3.1312   -1.0072  -20.9528 C   0  0  0  0  0  0  0  0  0  0  0  0
   -1.9174   -0.4244  -21.1509 N   0  0  0  0  0  0  0  0  0  0  0  0
   -0.9755   -1.3449  -20.8134 C   0  0  0  0  0  0  0  0  0  0  0  0
    0.4227   -1.3107  -20.8136 C   0  0  0  0  0  0  0  0  0  0  0  0
    5.5881   -2.3456  -19.8080 C   0  0  0  0  0  0  0  0  0  0  0  0
    5.2508   -2.7988  -21.0143 F   0  0  0  0  0  0  0  0  0  0  0  0
  1  2  1  0
  2  3  1  0
  3  4  1  0
  4  5  2  0
  4  6  2  0
  4  7  1  0
  7  8  1  0
  8  9  2  0
  9 10  1  0
 10 11  2  0
 11 12  1  0
 11 13  1  0
 13 14  1  0
 14 15  2  0
 14 16  1  0
 16 17  1  0
 17 18  2  0
 18 19  1  0
 19 20  2  0
 20 21  1  0
 21 22  2  0
 22 23  1  0
 23 24  1  0
 24 25  2  0
 13 26  2  0
 26 27  1  0
 26  8  1  0
 25 17  1  0
 24 20  1  0
M  END
>  <shape_align_shape_tanimoto>  (2) 
0.61753869801615702

>  <shape_align_color_tanimoto>  (2) 
0.13521232325439098

>  <metric>  (2) 
color

>  <metric_score>  (2) 
0.135

>  <template_pid>  (2) 
4MBJ

>  <template_shape_score>  (2) 
0.618

>  <template_color_score>  (2) 
0.135

>  <template_combo_score>  (2) 
0.376

$$$$
4MBJ_combo_pose
     RDKit          3D

 27 29  0  0  0  0  0  0  0  0999 V2000
   -5.0383   -2.9178  -16.3013 C   0  0  0  0  0  0  0  0  0  0  0  0
   -4.6448   -3.5753  -17.5870 C   0  0  0  0  0  0  0  0  0  0  0  0
   -5.1030   -2.7996  -18.8116 C   0  0  0  0  0  0  0  0  0  0  0  0
   -4.5657   -3.6991  -20.2366 S   0  0  0  0  0  0  0  0  0  0  0  0
   -5.2245   -5.0484  -20.2343 O   0  0  0  0  0  0  0  0  0  0  0  0
   -5.0250   -3.0215  -21.5145 O   0  0  0  0  0  0  0  0  0  0  0  0
   -2.8580   -3.8703  -20.2766 N   0  0  0  0  0  0  0  0  0  0  0  0
   -1.9702   -2.7775  -20.3465 C   0  0  0  0  0  0  0  0  0  0  0  0
   -2.4889   -1.5379  -20.6232 C   0  0  0  0  0  0  0  0  0  0  0  0
   -1.6159   -0.4817  -20.6942 C   0  0  0  0  0  0  0  0  0  0  0  0
   -0.2445   -0.6749  -20.4895 C   0  0  0  0  0  0  0  0  0  0  0  0
    0.5339    0.3961  -20.5747 F   0  0  0  0  0  0  0  0  0  0  0  0
    0.2918   -1.8961  -20.2138 C   0  0  0  0  0  0  0  0  0  0  0  0
    1.6790   -2.1985  -19.9886 C   0  0  0  0  0  0  0  0  0  0  0  0
    2.0184   -3.4125  -19.7363 O   0  0  0  0  0  0  0  0  0  0  0  0
    2.7472   -1.2793  -20.0144 N   0  0  0  0  0  0  0  0  0  0  0  0
    4.0575   -1.7733  -19.7654 C   0  0  0  0  0  0  0  0  0  0  0  0
    4.4909   -1.7855  -18.4533 C   0  0  0  0  0  0  0  0  0  0  0  0
    5.7283   -2.2487  -18.1912 N   0  0  0  0  0  0  0  0  0  0  0  0
    6.5372   -2.6943  -19.1805 C   0  0  0  0  0  0  0  0  0  0  0  0
    7.7853   -3.1930  -19.1715 N   0  0  0  0  0  0  0  0  0  0  0  0
    8.1791   -3.5049  -20.4249 C   0  0  0  0  0  0  0  0  0  0  0  0
    7.1532   -3.1964  -21.2558 N   0  0  0  0  0  0  0  0  0  0  0  0
    6.1466   -2.7014  -20.5089 C   0  0  0  0  0  0  0  0  0  0  0  0
    4.8762   -2.2278  -20.7945 C   0  0  0  0  0  0  0  0  0  0  0  0
   -0.6193   -2.9616  -20.1460 C   0  0  0  0  0  0  0  0  0  0  0  0
   -0.2058   -4.2277  -19.8781 F   0  0  0  0  0  0  0  0  0  0  0  0
  1  2  1  0
  2  3  1  0
  3  4  1  0
  4  5  2  0
  4  6  2  0
  4  7  1  0
  7  8  1  0
  8  9  2  0
  9 10  1  0
 10 11  2  0
 11 12  1  0
 11 13  1  0
 13 14  1  0
 14 15  2  0
 14 16  1  0
 16 17  1  0
 17 18  2  0
 18 19  1  0
 19 20  2  0
 20 21  1  0
 21 22  2  0
 22 23  1  0
 23 24  1  0
 24 25  2  0
 13 26  2  0
 26 27  1  0
 26  8  1  0
 25 17  1  0
 24 20  1  0
M  END
>  <shape_align_shape_tanimoto>  (3) 
0.7394213973698549

>  <shape_align_color_tanimoto>  (3) 
0.037223929743142016

>  <metric>  (3) 
combo

>  <metric_score>  (3) 
0.388

>  <template_pid>  (3) 
4MBJ

>  <template_shape_score>  (3) 
0.739

>  <template_color_score>  (3) 
0.037

>  <template_combo_score>  (3) 
0.388

$$$$
