5FOT_shape_pose
     RDKit          3D

 38 39  0  0  0  0  0  0  0  0999 V2000
   -5.8241    7.2677    9.0947 C   0  0  0  0  0  0  0  0  0  0  0  0
   -6.4024    5.9324    9.3636 C   0  0  0  0  0  0  0  0  0  0  0  0
   -5.8150    5.1318   10.4738 C   0  0  2  0  0  0  0  0  0  0  0  0
   -6.5036    3.8300   10.5995 N   0  0  0  0  0  0  0  0  0  0  0  0
   -5.7801    2.6367   10.3408 C   0  0  0  0  0  0  0  0  0  0  0  0
   -4.5442    2.7176   10.0054 O   0  0  0  0  0  0  0  0  0  0  0  0
   -6.3378    1.2800   10.4255 C   0  0  1  0  0  0  0  0  0  0  0  0
   -5.2576    0.3443   10.0697 N   0  0  0  0  0  0  0  0  0  0  0  0
   -5.3596   -0.4883    8.9006 C   0  0  0  0  0  0  0  0  0  0  0  0
   -6.4305   -0.3418    8.2382 O   0  0  0  0  0  0  0  0  0  0  0  0
   -4.2898   -1.4358    8.5128 C   0  0  2  0  0  0  0  0  0  0  0  0
   -4.7005   -2.8410    8.3077 C   0  0  0  0  0  0  0  0  0  0  0  0
   -5.7124   -2.9146    7.2314 C   0  0  0  0  0  0  0  0  0  0  0  0
   -5.4108   -3.0529    5.8737 C   0  0  0  0  0  0  0  0  0  0  0  0
   -6.5361   -3.0782    5.1507 N   0  0  0  0  0  0  0  0  0  0  0  0
   -7.5648   -2.9566    6.0380 C   0  0  0  0  0  0  0  0  0  0  0  0
   -7.0525   -2.8592    7.2853 N   0  0  0  0  0  0  0  0  0  0  0  0
   -3.2383   -1.2932    9.5218 N   0  0  0  0  0  0  0  0  0  0  0  0
   -1.9942   -0.6651    9.2406 C   0  0  0  0  0  0  0  0  0  0  0  0
   -1.8477   -0.2307    8.0585 O   0  0  0  0  0  0  0  0  0  0  0  0
   -0.9985   -0.5646   10.2995 C   0  0  2  0  0  0  0  0  0  0  0  0
    0.2739   -1.2880    9.9235 C   0  0  0  0  0  0  0  0  0  0  0  0
    0.9179   -0.7775    8.7075 C   0  0  0  0  0  0  0  0  0  0  0  0
    1.8263    0.2675    8.8373 C   0  0  0  0  0  0  0  0  0  0  0  0
    2.4866    0.8094    7.7532 C   0  0  0  0  0  0  0  0  0  0  0  0
    2.2557    0.3159    6.4825 C   0  0  0  0  0  0  0  0  0  0  0  0
    1.3534   -0.7277    6.3222 C   0  0  0  0  0  0  0  0  0  0  0  0
    0.6980   -1.2594    7.4353 C   0  0  0  0  0  0  0  0  0  0  0  0
   -1.4127   -1.1373   11.5718 N   0  0  0  0  0  0  0  0  0  0  0  0
   -1.3744   -0.3920   12.7697 C   0  0  0  0  0  0  0  0  0  0  0  0
   -1.8093   -1.0326   14.0372 C   0  0  0  0  0  0  0  0  0  0  0  0
   -0.9824    0.8159   12.8269 O   0  0  0  0  0  0  0  0  0  0  0  0
   -6.8196    0.8427   11.7588 C   0  0  1  0  0  0  0  0  0  0  0  0
   -7.9619    1.6042   12.3374 C   0  0  0  0  0  0  0  0  0  0  0  0
   -7.2787   -0.4870   11.5943 O   0  0  0  0  0  0  0  0  0  0  0  0
   -5.8451    5.7386   11.8022 C   0  0  0  0  0  0  0  0  0  0  0  0
   -6.4859    5.1010   12.9357 N   0  0  0  0  0  0  0  0  0  0  0  0
   -5.3216    6.8618   12.0790 O   0  0  0  0  0  0  0  0  0  0  0  0
  1  2  1  0
  3  2  1  6
  3  4  1  0
  4  5  1  0
  5  6  2  0
  5  7  1  0
  7  8  1  1
  8  9  1  0
  9 10  2  0
  9 11  1  0
 11 12  1  1
 12 13  1  0
 13 14  2  0
 14 15  1  0
 15 16  2  0
 16 17  1  0
 11 18  1  0
 18 19  1  0
 19 20  2  0
 19 21  1  0
 21 22  1  6
 22 23  1  0
 23 24  2  0
 24 25  1  0
 25 26  2  0
 26 27  1  0
 27 28  2  0
 21 29  1  0
 29 30  1  0
 30 31  1  0
 30 32  2  0
  7 33  1  0
 33 34  1  6
 33 35  1  0
  3 36  1  0
 36 37  1  0
 36 38  2  0
 17 13  1  0
 28 23  1  0
M  END
>  <shape_align_shape_tanimoto>  (1) 
0.45926714026588755

>  <shape_align_color_tanimoto>  (1) 
0.025103766710566685

>  <metric>  (1) 
shape

>  <metric_score>  (1) 
0.459

>  <template_pid>  (1) 
5FOT

>  <template_shape_score>  (1) 
0.459

>  <template_color_score>  (1) 
0.025

>  <template_combo_score>  (1) 
0.242

$$$$
5FOT_color_pose
     RDKit          3D

 38 39  0  0  0  0  0  0  0  0999 V2000
   -9.8776   -0.3589   12.9988 C   0  0  0  0  0  0  0  0  0  0  0  0
  -10.8561    0.7068   12.5546 C   0  0  0  0  0  0  0  0  0  0  0  0
  -10.6158    1.0707   11.1135 C   0  0  2  0  0  0  0  0  0  0  0  0
   -9.2559    1.5745   10.9882 N   0  0  0  0  0  0  0  0  0  0  0  0
   -8.2930    0.9295   10.1261 C   0  0  0  0  0  0  0  0  0  0  0  0
   -8.7273   -0.0789    9.5140 O   0  0  0  0  0  0  0  0  0  0  0  0
   -6.9203    1.4544   10.0107 C   0  0  1  0  0  0  0  0  0  0  0  0
   -6.1713    0.5872    9.1243 N   0  0  0  0  0  0  0  0  0  0  0  0
   -4.9903    0.0109    9.6010 C   0  0  0  0  0  0  0  0  0  0  0  0
   -4.6615    0.2961   10.8086 O   0  0  0  0  0  0  0  0  0  0  0  0
   -4.0724   -0.8823    8.8808 C   0  0  2  0  0  0  0  0  0  0  0  0
   -4.5548   -2.2410    8.5369 C   0  0  0  0  0  0  0  0  0  0  0  0
   -5.7425   -2.3131    7.6758 C   0  0  0  0  0  0  0  0  0  0  0  0
   -7.0718   -2.4052    8.0372 C   0  0  0  0  0  0  0  0  0  0  0  0
   -7.8525   -2.4766    6.9436 N   0  0  0  0  0  0  0  0  0  0  0  0
   -7.0239   -2.4306    5.8686 C   0  0  0  0  0  0  0  0  0  0  0  0
   -5.7585   -2.3326    6.3113 N   0  0  0  0  0  0  0  0  0  0  0  0
   -2.9474   -1.0442    9.8480 N   0  0  0  0  0  0  0  0  0  0  0  0
   -1.6452   -0.5515    9.5059 C   0  0  0  0  0  0  0  0  0  0  0  0
   -1.5409   -0.0025    8.3843 O   0  0  0  0  0  0  0  0  0  0  0  0
   -0.5535   -0.7241   10.4779 C   0  0  2  0  0  0  0  0  0  0  0  0
    0.5994   -1.4812    9.8881 C   0  0  0  0  0  0  0  0  0  0  0  0
    1.1506   -0.7710    8.7149 C   0  0  0  0  0  0  0  0  0  0  0  0
    2.1075    0.2339    8.9074 C   0  0  0  0  0  0  0  0  0  0  0  0
    2.6619    0.9113    7.8296 C   0  0  0  0  0  0  0  0  0  0  0  0
    2.2872    0.6153    6.5341 C   0  0  0  0  0  0  0  0  0  0  0  0
    1.3373   -0.3812    6.3231 C   0  0  0  0  0  0  0  0  0  0  0  0
    0.8039   -1.0372    7.4123 C   0  0  0  0  0  0  0  0  0  0  0  0
   -1.0411   -1.3526   11.6971 N   0  0  0  0  0  0  0  0  0  0  0  0
   -0.9525   -0.7286   12.9725 C   0  0  0  0  0  0  0  0  0  0  0  0
   -1.4909   -1.4835   14.1378 C   0  0  0  0  0  0  0  0  0  0  0  0
   -0.4351    0.4141   13.0757 O   0  0  0  0  0  0  0  0  0  0  0  0
   -6.9044    2.8882    9.5016 C   0  0  1  0  0  0  0  0  0  0  0  0
   -7.5106    2.9920    8.1213 C   0  0  0  0  0  0  0  0  0  0  0  0
   -7.6085    3.7641   10.3214 O   0  0  0  0  0  0  0  0  0  0  0  0
  -11.6024    2.0763   10.6349 C   0  0  0  0  0  0  0  0  0  0  0  0
  -12.9682    1.7311   10.6917 N   0  0  0  0  0  0  0  0  0  0  0  0
  -11.2880    3.1955   10.1912 O   0  0  0  0  0  0  0  0  0  0  0  0
  1  2  1  0
  3  2  1  1
  3  4  1  0
  4  5  1  0
  5  6  2  0
  5  7  1  0
  7  8  1  6
  8  9  1  0
  9 10  2  0
  9 11  1  0
 11 12  1  1
 12 13  1  0
 13 14  2  0
 14 15  1  0
 15 16  2  0
 16 17  1  0
 11 18  1  0
 18 19  1  0
 19 20  2  0
 19 21  1  0
 21 22  1  6
 22 23  1  0
 23 24  2  0
 24 25  1  0
 25 26  2  0
 26 27  1  0
 27 28  2  0
 21 29  1  0
 29 30  1  0
 30 31  1  0
 30 32  2  0
  7 33  1  0
 33 34  1  6
 33 35  1  0
  3 36  1  0
 36 37  1  0
 36 38  2  0
 17 13  1  0
 28 23  1  0
M  END
>  <shape_align_shape_tanimoto>  (2) 
0.4438710955723324

>  <shape_align_color_tanimoto>  (2) 
0.054402987703854565

>  <metric>  (2) 
color

>  <metric_score>  (2) 
0.054

>  <template_pid>  (2) 
5FOT

>  <template_shape_score>  (2) 
0.444

>  <template_color_score>  (2) 
0.054

>  <template_combo_score>  (2) 
0.249

$$$$
5FOT_combo_pose
     RDKit          3D

 38 39  0  0  0  0  0  0  0  0999 V2000
   -9.8776   -0.3589   12.9988 C   0  0  0  0  0  0  0  0  0  0  0  0
  -10.8561    0.7068   12.5546 C   0  0  0  0  0  0  0  0  0  0  0  0
  -10.6158    1.0707   11.1135 C   0  0  2  0  0  0  0  0  0  0  0  0
   -9.2559    1.5745   10.9882 N   0  0  0  0  0  0  0  0  0  0  0  0
   -8.2930    0.9295   10.1261 C   0  0  0  0  0  0  0  0  0  0  0  0
   -8.7273   -0.0789    9.5140 O   0  0  0  0  0  0  0  0  0  0  0  0
   -6.9203    1.4544   10.0107 C   0  0  1  0  0  0  0  0  0  0  0  0
   -6.1713    0.5872    9.1243 N   0  0  0  0  0  0  0  0  0  0  0  0
   -4.9903    0.0109    9.6010 C   0  0  0  0  0  0  0  0  0  0  0  0
   -4.6615    0.2961   10.8086 O   0  0  0  0  0  0  0  0  0  0  0  0
   -4.0724   -0.8823    8.8808 C   0  0  2  0  0  0  0  0  0  0  0  0
   -4.5548   -2.2410    8.5369 C   0  0  0  0  0  0  0  0  0  0  0  0
   -5.7425   -2.3131    7.6758 C   0  0  0  0  0  0  0  0  0  0  0  0
   -7.0718   -2.4052    8.0372 C   0  0  0  0  0  0  0  0  0  0  0  0
   -7.8525   -2.4766    6.9436 N   0  0  0  0  0  0  0  0  0  0  0  0
   -7.0239   -2.4306    5.8686 C   0  0  0  0  0  0  0  0  0  0  0  0
   -5.7585   -2.3326    6.3113 N   0  0  0  0  0  0  0  0  0  0  0  0
   -2.9474   -1.0442    9.8480 N   0  0  0  0  0  0  0  0  0  0  0  0
   -1.6452   -0.5515    9.5059 C   0  0  0  0  0  0  0  0  0  0  0  0
   -1.5409   -0.0025    8.3843 O   0  0  0  0  0  0  0  0  0  0  0  0
   -0.5535   -0.7241   10.4779 C   0  0  2  0  0  0  0  0  0  0  0  0
    0.5994   -1.4812    9.8881 C   0  0  0  0  0  0  0  0  0  0  0  0
    1.1506   -0.7710    8.7149 C   0  0  0  0  0  0  0  0  0  0  0  0
    2.1075    0.2339    8.9074 C   0  0  0  0  0  0  0  0  0  0  0  0
    2.6619    0.9113    7.8296 C   0  0  0  0  0  0  0  0  0  0  0  0
    2.2872    0.6153    6.5341 C   0  0  0  0  0  0  0  0  0  0  0  0
    1.3373   -0.3812    6.3231 C   0  0  0  0  0  0  0  0  0  0  0  0
    0.8039   -1.0372    7.4123 C   0  0  0  0  0  0  0  0  0  0  0  0
   -1.0411   -1.3526   11.6971 N   0  0  0  0  0  0  0  0  0  0  0  0
   -0.9525   -0.7286   12.9725 C   0  0  0  0  0  0  0  0  0  0  0  0
   -1.4909   -1.4835   14.1378 C   0  0  0  0  0  0  0  0  0  0  0  0
   -0.4351    0.4141   13.0757 O   0  0  0  0  0  0  0  0  0  0  0  0
   -6.9044    2.8882    9.5016 C   0  0  1  0  0  0  0  0  0  0  0  0
   -7.5106    2.9920    8.1213 C   0  0  0  0  0  0  0  0  0  0  0  0
   -7.6085    3.7641   10.3214 O   0  0  0  0  0  0  0  0  0  0  0  0
  -11.6024    2.0763   10.6349 C   0  0  0  0  0  0  0  0  0  0  0  0
  -12.9682    1.7311   10.6917 N   0  0  0  0  0  0  0  0  0  0  0  0
  -11.2880    3.1955   10.1912 O   0  0  0  0  0  0  0  0  0  0  0  0
  1  2  1  0
  3  2  1  1
  3  4  1  0
  4  5  1  0
  5  6  2  0
  5  7  1  0
  7  8  1  6
  8  9  1  0
  9 10  2  0
  9 11  1  0
 11 12  1  1
 12 13  1  0
 13 14  2  0
 14 15  1  0
 15 16  2  0
 16 17  1  0
 11 18  1  0
 18 19  1  0
 19 20  2  0
 19 21  1  0
 21 22  1  6
 22 23  1  0
 23 24  2  0
 24 25  1  0
 25 26  2  0
 26 27  1  0
 27 28  2  0
 21 29  1  0
 29 30  1  0
 30 31  1  0
 30 32  2  0
  7 33  1  0
 33 34  1  6
 33 35  1  0
  3 36  1  0
 36 37  1  0
 36 38  2  0
 17 13  1  0
 28 23  1  0
M  END
>  <shape_align_shape_tanimoto>  (3) 
0.4438710955723324

>  <shape_align_color_tanimoto>  (3) 
0.054402987703854565

>  <metric>  (3) 
combo

>  <metric_score>  (3) 
0.249

>  <template_pid>  (3) 
5FOT

>  <template_shape_score>  (3) 
0.444

>  <template_color_score>  (3) 
0.054

>  <template_combo_score>  (3) 
0.249

$$$$
