4IB5_shape_pose
     RDKit          3D

 98101  0  0  0  0  0  0  0  0999 V2000
 -146.3354 -172.1333  356.4517 C   0  0  0  0  0  0  0  0  0  0  0  0
 -146.8226 -172.1486  357.8860 C   0  0  0  0  0  0  0  0  0  0  0  0
 -146.2157 -173.3798  358.5343 C   0  0  2  0  0  0  0  0  0  0  0  0
 -146.6830 -174.5960  357.7794 C   0  0  0  0  0  0  0  0  0  0  0  0
 -146.4009 -173.4461  359.9810 C   0  0  2  0  0  0  0  0  0  0  0  0
 -147.7677 -173.3860  360.4328 N   0  0  0  0  0  0  0  0  0  0  0  0
 -148.1957 -173.9828  361.6986 C   0  0  0  0  0  0  0  0  0  0  0  0
 -147.3426 -174.5443  362.3187 O   0  0  0  0  0  0  0  0  0  0  0  0
 -149.6664 -173.8207  362.0284 C   0  0  2  0  0  0  0  0  0  0  0  0
 -150.0259 -172.4800  362.5084 C   0  0  0  0  0  0  0  0  0  0  0  0
 -149.7126 -171.3816  361.5338 C   0  0  0  0  0  0  0  0  0  0  0  0
 -150.1757 -170.0607  362.1546 C   0  0  0  0  0  0  0  0  0  0  0  0
 -149.8536 -168.9192  361.2184 C   0  0  0  0  0  0  0  0  0  0  0  0
 -150.4711 -169.0791  359.9301 N   0  0  0  0  0  0  0  0  0  0  0  0
 -150.0150 -174.8442  363.0307 N   0  0  0  0  0  0  0  0  0  0  0  0
 -149.7152 -176.2175  362.5697 C   0  0  0  0  0  0  0  0  0  0  0  0
 -149.1389 -176.2300  361.5043 O   0  0  0  0  0  0  0  0  0  0  0  0
 -150.0801 -177.4130  363.3460 C   0  0  2  0  0  0  0  0  0  0  0  0
 -150.3264 -177.4536  364.7590 C   0  0  0  0  0  0  0  0  0  0  0  0
 -149.4030 -177.1180  365.8093 C   0  0  0  0  0  0  0  0  0  0  0  0
 -148.5691 -178.1356  366.2974 C   0  0  0  0  0  0  0  0  0  0  0  0
 -147.6820 -177.9717  367.3138 C   0  0  0  0  0  0  0  0  0  0  0  0
 -147.5622 -176.7379  367.9286 C   0  0  0  0  0  0  0  0  0  0  0  0
 -148.3437 -175.7193  367.4881 C   0  0  0  0  0  0  0  0  0  0  0  0
 -149.2650 -175.8867  366.4378 C   0  0  0  0  0  0  0  0  0  0  0  0
 -149.2236 -178.4955  362.7877 N   0  0  0  0  0  0  0  0  0  0  0  0
 -149.7087 -179.7344  362.3019 C   0  0  0  0  0  0  0  0  0  0  0  0
 -150.9242 -179.9321  362.5258 O   0  0  0  0  0  0  0  0  0  0  0  0
 -148.7961 -180.6718  361.6045 C   0  0  0  0  0  0  0  0  0  0  0  0
 -147.4456 -180.1385  361.5259 N   0  0  0  0  0  0  0  0  0  0  0  0
 -146.5273 -180.0607  362.6278 C   0  0  0  0  0  0  0  0  0  0  0  0
 -146.9557 -180.5278  363.6816 O   0  0  0  0  0  0  0  0  0  0  0  0
 -145.2141 -179.4431  362.3883 C   0  0  2  0  0  0  0  0  0  0  0  0
 -144.6141 -179.4673  361.0459 C   0  0  0  0  0  0  0  0  0  0  0  0
 -144.3168 -180.7562  360.4220 C   0  0  0  0  0  0  0  0  0  0  0  0
 -145.1023 -181.4584  359.5301 C   0  0  0  0  0  0  0  0  0  0  0  0
 -144.7291 -182.6838  359.0353 C   0  0  0  0  0  0  0  0  0  0  0  0
 -143.5469 -183.3059  359.3870 C   0  0  0  0  0  0  0  0  0  0  0  0
 -143.1470 -184.5281  358.9186 O   0  0  0  0  0  0  0  0  0  0  0  0
 -142.7340 -182.6034  360.2919 C   0  0  0  0  0  0  0  0  0  0  0  0
 -143.1047 -181.3807  360.7883 C   0  0  0  0  0  0  0  0  0  0  0  0
 -144.2685 -179.5587  363.4954 N   0  0  0  0  0  0  0  0  0  0  0  0
 -144.5665 -178.9972  364.7673 C   0  0  0  0  0  0  0  0  0  0  0  0
 -145.7318 -178.6016  364.8941 O   0  0  0  0  0  0  0  0  0  0  0  0
 -143.6581 -178.8734  365.9136 C   0  0  2  0  0  0  0  0  0  0  0  0
 -143.8850 -177.6211  366.7153 C   0  0  0  0  0  0  0  0  0  0  0  0
 -143.6735 -176.3117  366.0726 C   0  0  0  0  0  0  0  0  0  0  0  0
 -144.4673 -175.9928  364.8543 C   0  0  0  0  0  0  0  0  0  0  0  0
 -142.2466 -175.8364  366.0724 C   0  0  0  0  0  0  0  0  0  0  0  0
 -142.2581 -179.0102  365.5502 N   0  0  0  0  0  0  0  0  0  0  0  0
 -141.3081 -179.7800  366.3825 C   0  0  0  0  0  0  0  0  0  0  0  0
 -141.8278 -180.3186  367.3176 O   0  0  0  0  0  0  0  0  0  0  0  0
 -139.9172 -179.7185  365.8958 C   0  0  2  0  0  0  0  0  0  0  0  0
 -138.9906 -178.9098  366.7320 C   0  0  0  0  0  0  0  0  0  0  0  0
 -138.6471 -179.2267  368.0903 C   0  0  0  0  0  0  0  0  0  0  0  0
 -139.6563 -179.3799  369.1712 C   0  0  0  0  0  0  0  0  0  0  0  0
 -140.6597 -178.3458  369.2549 N   0  0  0  0  0  0  0  0  0  0  0  0
 -141.4581 -178.4026  370.4778 C   0  0  0  0  0  0  0  0  0  0  0  0
 -142.5355 -177.4309  370.4458 N   0  0  0  0  0  0  0  0  0  0  0  0
 -141.2222 -179.2335  371.2737 N   0  0  0  0  0  0  0  0  0  0  0  0
 -139.7808 -179.1495  364.5271 N   0  0  0  0  0  0  0  0  0  0  0  0
 -139.2277 -179.9466  363.4441 C   0  0  0  0  0  0  0  0  0  0  0  0
 -139.1228 -181.1257  363.7167 O   0  0  0  0  0  0  0  0  0  0  0  0
 -138.8938 -179.1975  362.2167 C   0  0  1  0  0  0  0  0  0  0  0  0
 -138.8283 -180.0614  361.1179 N   0  0  0  0  0  0  0  0  0  0  0  0
 -137.5834 -180.3741  360.4418 C   0  0  0  0  0  0  0  0  0  0  0  0
 -136.5852 -179.8256  360.8865 O   0  0  0  0  0  0  0  0  0  0  0  0
 -137.6982 -181.3110  359.3106 C   0  0  0  0  0  0  0  0  0  0  0  0
 -136.3425 -181.5175  358.8210 N   0  0  0  0  0  0  0  0  0  0  0  0
 -139.6279 -177.9024  362.1312 C   0  0  0  0  0  0  0  0  0  0  0  0
 -138.9827 -176.6580  363.2748 S   0  0  0  0  0  0  0  0  0  0  0  0
 -137.2407 -175.6703  362.5719 S   0  0  0  0  0  0  0  0  0  0  0  0
 -137.7811 -174.0542  361.7634 C   0  0  0  0  0  0  0  0  0  0  0  0
 -138.3049 -173.2779  362.9447 C   0  0  1  0  0  0  0  0  0  0  0  0
 -137.1725 -173.0924  363.8494 C   0  0  0  0  0  0  0  0  0  0  0  0
 -136.3869 -174.1198  363.9784 O   0  0  0  0  0  0  0  0  0  0  0  0
 -136.7772 -171.9907  364.6184 N   0  0  0  0  0  0  0  0  0  0  0  0
 -135.5760 -172.1960  365.4467 C   0  0  0  0  0  0  0  0  0  0  0  0
 -134.4313 -172.5646  364.5304 C   0  0  0  0  0  0  0  0  0  0  0  0
 -134.5143 -172.4178  363.2775 O   0  0  0  0  0  0  0  0  0  0  0  0
 -133.3138 -173.0792  365.1782 O   0  0  0  0  0  0  0  0  0  0  0  0
 -139.2379 -172.2588  362.8019 N   0  0  0  0  0  0  0  0  0  0  0  0
 -139.0765 -170.8542  362.4741 C   0  0  0  0  0  0  0  0  0  0  0  0
 -137.9638 -170.5305  362.1607 O   0  0  0  0  0  0  0  0  0  0  0  0
 -140.3136 -169.9816  362.5762 C   0  0  0  0  0  0  0  0  0  0  0  0
 -141.4845 -170.7980  362.7499 N   0  0  0  0  0  0  0  0  0  0  0  0
 -142.0139 -171.5069  361.5395 C   0  0  0  0  0  0  0  0  0  0  0  0
 -141.3030 -171.1766  360.5828 O   0  0  0  0  0  0  0  0  0  0  0  0
 -143.1532 -172.3529  361.6881 C   0  0  2  0  0  0  0  0  0  0  0  0
 -142.4885 -173.7912  361.8848 C   0  0  0  0  0  0  0  0  0  0  0  0
 -141.7517 -174.1554  360.6910 C   0  0  0  0  0  0  0  0  0  0  0  0
 -141.5409 -173.6318  359.4389 C   0  0  0  0  0  0  0  0  0  0  0  0
 -140.7701 -174.4720  358.6827 N   0  0  0  0  0  0  0  0  0  0  0  0
 -140.4983 -175.5086  359.4328 C   0  0  0  0  0  0  0  0  0  0  0  0
 -141.0650 -175.3489  360.6277 N   0  0  0  0  0  0  0  0  0  0  0  0
 -144.0440 -172.7183  360.6303 N   0  0  0  0  0  0  0  0  0  0  0  0
 -145.4855 -172.7572  360.8978 C   0  0  0  0  0  0  0  0  0  0  0  0
 -145.8011 -172.1688  361.9526 O   0  0  0  0  0  0  0  0  0  0  0  0
  1  2  1  0
  2  3  1  0
  3  4  1  6
  3  5  1  0
  5  6  1  6
  6  7  1  0
  7  8  2  0
  7  9  1  0
  9 10  1  1
 10 11  1  0
 11 12  1  0
 12 13  1  0
 13 14  1  0
  9 15  1  0
 15 16  1  0
 16 17  2  0
 16 18  1  0
 18 19  1  1
 19 20  1  0
 20 21  2  0
 21 22  1  0
 22 23  2  0
 23 24  1  0
 24 25  2  0
 18 26  1  0
 26 27  1  0
 27 28  2  0
 27 29  1  0
 29 30  1  0
 30 31  1  0
 31 32  2  0
 31 33  1  0
 33 34  1  6
 34 35  1  0
 35 36  2  0
 36 37  1  0
 37 38  2  0
 38 39  1  0
 38 40  1  0
 40 41  2  0
 33 42  1  0
 42 43  1  0
 43 44  2  0
 43 45  1  0
 45 46  1  6
 46 47  1  0
 47 48  1  0
 47 49  1  0
 45 50  1  0
 50 51  1  0
 51 52  2  0
 51 53  1  0
 53 54  1  1
 54 55  1  0
 55 56  1  0
 56 57  1  0
 57 58  1  0
 58 59  1  0
 58 60  2  0
 53 61  1  0
 61 62  1  0
 62 63  2  0
 62 64  1  0
 64 65  1  6
 65 66  1  0
 66 67  2  0
 66 68  1  0
 68 69  1  0
 64 70  1  0
 70 71  1  0
 71 72  1  0
 72 73  1  0
 73 74  1  0
 74 75  1  6
 75 76  2  0
 75 77  1  0
 77 78  1  0
 78 79  1  0
 79 80  2  0
 79 81  1  0
 74 82  1  0
 82 83  1  0
 83 84  2  0
 83 85  1  0
 85 86  1  0
 86 87  1  0
 87 88  2  0
 87 89  1  0
 89 90  1  6
 90 91  1  0
 91 92  2  0
 92 93  1  0
 93 94  1  0
 94 95  2  0
 89 96  1  0
 96 97  1  0
 97 98  2  0
 97  5  1  0
 25 20  1  0
 41 35  1  0
 95 91  1  0
M  CHG  4  14   1  60   1  69   1  81  -1
M  END
>  <shape_align_shape_tanimoto>  (1) 
0.28814353423910383

>  <shape_align_color_tanimoto>  (1) 
0.0089233537772351584

>  <metric>  (1) 
shape

>  <metric_score>  (1) 
0.288

>  <template_pid>  (1) 
4IB5

>  <template_shape_score>  (1) 
0.288

>  <template_color_score>  (1) 
0.009

>  <template_combo_score>  (1) 
0.149

$$$$
4IB5_color_pose
     RDKit          3D

 98101  0  0  0  0  0  0  0  0999 V2000
 -146.9205 -172.4811  368.6116 C   0  0  0  0  0  0  0  0  0  0  0  0
 -146.8121 -173.9696  368.5219 C   0  0  0  0  0  0  0  0  0  0  0  0
 -147.2033 -174.4462  367.1129 C   0  0  2  0  0  0  0  0  0  0  0  0
 -148.6387 -174.0102  366.9575 C   0  0  0  0  0  0  0  0  0  0  0  0
 -146.9352 -175.9055  367.0983 C   0  0  2  0  0  0  0  0  0  0  0  0
 -145.5372 -176.2007  367.3336 N   0  0  0  0  0  0  0  0  0  0  0  0
 -144.4130 -175.3747  367.1964 C   0  0  0  0  0  0  0  0  0  0  0  0
 -144.5608 -174.2186  366.7977 O   0  0  0  0  0  0  0  0  0  0  0  0
 -143.0096 -175.7926  367.4903 C   0  0  2  0  0  0  0  0  0  0  0  0
 -142.2311 -175.7200  366.1626 C   0  0  0  0  0  0  0  0  0  0  0  0
 -140.8202 -176.0869  366.3051 C   0  0  0  0  0  0  0  0  0  0  0  0
 -140.1999 -176.0340  364.8869 C   0  0  0  0  0  0  0  0  0  0  0  0
 -138.7549 -176.4051  364.9100 C   0  0  0  0  0  0  0  0  0  0  0  0
 -138.1941 -176.3537  363.5589 N   0  0  0  0  0  0  0  0  0  0  0  0
 -142.8580 -177.0772  368.1101 N   0  0  0  0  0  0  0  0  0  0  0  0
 -142.5829 -178.3082  367.5033 C   0  0  0  0  0  0  0  0  0  0  0  0
 -142.6180 -178.3212  366.2420 O   0  0  0  0  0  0  0  0  0  0  0  0
 -142.2610 -179.6090  368.1222 C   0  0  2  0  0  0  0  0  0  0  0  0
 -141.2312 -179.5776  369.2117 C   0  0  0  0  0  0  0  0  0  0  0  0
 -139.9036 -179.0957  368.9244 C   0  0  0  0  0  0  0  0  0  0  0  0
 -139.4497 -177.7954  369.1471 C   0  0  0  0  0  0  0  0  0  0  0  0
 -138.1636 -177.4022  368.8301 C   0  0  0  0  0  0  0  0  0  0  0  0
 -137.2579 -178.2819  368.2759 C   0  0  0  0  0  0  0  0  0  0  0  0
 -137.6872 -179.5769  368.0481 C   0  0  0  0  0  0  0  0  0  0  0  0
 -138.9637 -179.9691  368.3611 C   0  0  0  0  0  0  0  0  0  0  0  0
 -141.8906 -180.4495  367.0002 N   0  0  0  0  0  0  0  0  0  0  0  0
 -141.7032 -181.8424  366.9460 C   0  0  0  0  0  0  0  0  0  0  0  0
 -141.6590 -182.4412  368.0048 O   0  0  0  0  0  0  0  0  0  0  0  0
 -141.5343 -182.4813  365.5718 C   0  0  0  0  0  0  0  0  0  0  0  0
 -142.0067 -181.5424  364.6018 N   0  0  0  0  0  0  0  0  0  0  0  0
 -141.8651 -181.5080  363.1908 C   0  0  0  0  0  0  0  0  0  0  0  0
 -141.1885 -182.3954  362.6858 O   0  0  0  0  0  0  0  0  0  0  0  0
 -142.5647 -180.3879  362.5060 C   0  0  2  0  0  0  0  0  0  0  0  0
 -143.9919 -180.8590  362.1424 C   0  0  0  0  0  0  0  0  0  0  0  0
 -144.7912 -181.2671  363.2872 C   0  0  0  0  0  0  0  0  0  0  0  0
 -144.6536 -182.5986  363.7198 C   0  0  0  0  0  0  0  0  0  0  0  0
 -145.3783 -183.0842  364.7918 C   0  0  0  0  0  0  0  0  0  0  0  0
 -146.2655 -182.2918  365.4848 C   0  0  0  0  0  0  0  0  0  0  0  0
 -146.9545 -182.8305  366.5397 O   0  0  0  0  0  0  0  0  0  0  0  0
 -146.4090 -180.9833  365.0702 C   0  0  0  0  0  0  0  0  0  0  0  0
 -145.6785 -180.4814  363.9841 C   0  0  0  0  0  0  0  0  0  0  0  0
 -141.9725 -180.0862  361.2395 N   0  0  0  0  0  0  0  0  0  0  0  0
 -141.6297 -178.6911  361.0241 C   0  0  0  0  0  0  0  0  0  0  0  0
 -141.8613 -177.9383  361.9621 O   0  0  0  0  0  0  0  0  0  0  0  0
 -141.0259 -178.2392  359.7173 C   0  0  2  0  0  0  0  0  0  0  0  0
 -139.8259 -179.0375  359.3739 C   0  0  0  0  0  0  0  0  0  0  0  0
 -139.1923 -178.6904  358.0683 C   0  0  0  0  0  0  0  0  0  0  0  0
 -137.9782 -179.5513  357.7902 C   0  0  0  0  0  0  0  0  0  0  0  0
 -140.1478 -178.8874  356.9068 C   0  0  0  0  0  0  0  0  0  0  0  0
 -140.7751 -176.7956  359.9066 N   0  0  0  0  0  0  0  0  0  0  0  0
 -141.3176 -175.8214  359.0170 C   0  0  0  0  0  0  0  0  0  0  0  0
 -141.9237 -176.3665  358.0299 O   0  0  0  0  0  0  0  0  0  0  0  0
 -141.2762 -174.3894  359.0667 C   0  0  2  0  0  0  0  0  0  0  0  0
 -140.5948 -173.7632  357.8349 C   0  0  0  0  0  0  0  0  0  0  0  0
 -139.1620 -174.2146  357.6843 C   0  0  0  0  0  0  0  0  0  0  0  0
 -138.4956 -173.5568  356.5007 C   0  0  0  0  0  0  0  0  0  0  0  0
 -139.0965 -173.7828  355.2341 N   0  0  0  0  0  0  0  0  0  0  0  0
 -139.1728 -174.9978  354.5272 C   0  0  0  0  0  0  0  0  0  0  0  0
 -139.8336 -175.0310  353.2435 N   0  0  0  0  0  0  0  0  0  0  0  0
 -138.6675 -176.0832  354.9913 N   0  0  0  0  0  0  0  0  0  0  0  0
 -140.7718 -173.7363  360.2555 N   0  0  0  0  0  0  0  0  0  0  0  0
 -141.5872 -172.7434  360.9658 C   0  0  0  0  0  0  0  0  0  0  0  0
 -142.7209 -172.6177  360.4932 O   0  0  0  0  0  0  0  0  0  0  0  0
 -141.1199 -171.9796  362.1136 C   0  0  1  0  0  0  0  0  0  0  0  0
 -139.6991 -172.1716  362.4485 N   0  0  0  0  0  0  0  0  0  0  0  0
 -139.2677 -172.3550  363.7644 C   0  0  0  0  0  0  0  0  0  0  0  0
 -140.1025 -172.3723  364.7417 O   0  0  0  0  0  0  0  0  0  0  0  0
 -137.8454 -172.5394  364.1604 C   0  0  0  0  0  0  0  0  0  0  0  0
 -136.9462 -172.4775  363.0574 N   0  0  0  0  0  0  0  0  0  0  0  0
 -141.4146 -170.4962  362.0629 C   0  0  0  0  0  0  0  0  0  0  0  0
 -143.0154 -169.8958  362.3904 S   0  0  0  0  0  0  0  0  0  0  0  0
 -144.6258 -170.4278  361.2240 S   0  0  0  0  0  0  0  0  0  0  0  0
 -145.5243 -171.8343  361.9013 C   0  0  0  0  0  0  0  0  0  0  0  0
 -146.6271 -172.2407  360.9611 C   0  0  1  0  0  0  0  0  0  0  0  0
 -145.9725 -172.6634  359.6671 C   0  0  0  0  0  0  0  0  0  0  0  0
 -145.9151 -173.8772  359.3265 O   0  0  0  0  0  0  0  0  0  0  0  0
 -145.3951 -171.7248  358.7747 N   0  0  0  0  0  0  0  0  0  0  0  0
 -144.7557 -172.1357  357.5312 C   0  0  0  0  0  0  0  0  0  0  0  0
 -144.2354 -170.9108  356.8321 C   0  0  0  0  0  0  0  0  0  0  0  0
 -144.3907 -169.7725  357.3450 O   0  0  0  0  0  0  0  0  0  0  0  0
 -143.5760 -170.9928  355.6174 O   0  0  0  0  0  0  0  0  0  0  0  0
 -147.2958 -173.4162  361.5497 N   0  0  0  0  0  0  0  0  0  0  0  0
 -148.5878 -173.7932  361.0813 C   0  0  0  0  0  0  0  0  0  0  0  0
 -149.0213 -173.0863  360.1440 O   0  0  0  0  0  0  0  0  0  0  0  0
 -149.4191 -174.8913  361.5665 C   0  0  0  0  0  0  0  0  0  0  0  0
 -148.8590 -175.5369  362.7277 N   0  0  0  0  0  0  0  0  0  0  0  0
 -149.5715 -176.7287  363.1644 C   0  0  0  0  0  0  0  0  0  0  0  0
 -150.5369 -176.9977  362.4071 O   0  0  0  0  0  0  0  0  0  0  0  0
 -149.2057 -177.5262  364.3436 C   0  0  2  0  0  0  0  0  0  0  0  0
 -150.1997 -178.5885  364.6231 C   0  0  0  0  0  0  0  0  0  0  0  0
 -150.2002 -179.5148  363.4538 C   0  0  0  0  0  0  0  0  0  0  0  0
 -149.3670 -179.4741  362.3445 C   0  0  0  0  0  0  0  0  0  0  0  0
 -149.6382 -180.5048  361.5172 N   0  0  0  0  0  0  0  0  0  0  0  0
 -150.6403 -181.1993  362.0968 C   0  0  0  0  0  0  0  0  0  0  0  0
 -150.9853 -180.6172  363.2574 N   0  0  0  0  0  0  0  0  0  0  0  0
 -148.7697 -176.7163  365.4532 N   0  0  0  0  0  0  0  0  0  0  0  0
 -147.4597 -176.6825  365.9767 C   0  0  0  0  0  0  0  0  0  0  0  0
 -146.6566 -177.4468  365.3661 O   0  0  0  0  0  0  0  0  0  0  0  0
  1  2  1  0
  2  3  1  0
  3  4  1  1
  3  5  1  0
  5  6  1  6
  6  7  1  0
  7  8  2  0
  7  9  1  0
  9 10  1  6
 10 11  1  0
 11 12  1  0
 12 13  1  0
 13 14  1  0
  9 15  1  0
 15 16  1  0
 16 17  2  0
 16 18  1  0
 18 19  1  1
 19 20  1  0
 20 21  2  0
 21 22  1  0
 22 23  2  0
 23 24  1  0
 24 25  2  0
 18 26  1  0
 26 27  1  0
 27 28  2  0
 27 29  1  0
 29 30  1  0
 30 31  1  0
 31 32  2  0
 31 33  1  0
 33 34  1  6
 34 35  1  0
 35 36  2  0
 36 37  1  0
 37 38  2  0
 38 39  1  0
 38 40  1  0
 40 41  2  0
 33 42  1  0
 42 43  1  0
 43 44  2  0
 43 45  1  0
 45 46  1  1
 46 47  1  0
 47 48  1  0
 47 49  1  0
 45 50  1  0
 50 51  1  0
 51 52  2  0
 51 53  1  0
 53 54  1  6
 54 55  1  0
 55 56  1  0
 56 57  1  0
 57 58  1  0
 58 59  1  0
 58 60  2  0
 53 61  1  0
 61 62  1  0
 62 63  2  0
 62 64  1  0
 64 65  1  6
 65 66  1  0
 66 67  2  0
 66 68  1  0
 68 69  1  0
 64 70  1  0
 70 71  1  0
 71 72  1  0
 72 73  1  0
 73 74  1  0
 74 75  1  6
 75 76  2  0
 75 77  1  0
 77 78  1  0
 78 79  1  0
 79 80  2  0
 79 81  1  0
 74 82  1  0
 82 83  1  0
 83 84  2  0
 83 85  1  0
 85 86  1  0
 86 87  1  0
 87 88  2  0
 87 89  1  0
 89 90  1  1
 90 91  1  0
 91 92  2  0
 92 93  1  0
 93 94  1  0
 94 95  2  0
 89 96  1  0
 96 97  1  0
 97 98  2  0
 97  5  1  0
 25 20  1  0
 41 35  1  0
 95 91  1  0
M  CHG  4  14   1  60   1  69   1  81  -1
M  END
>  <shape_align_shape_tanimoto>  (2) 
0.207950932246876

>  <shape_align_color_tanimoto>  (2) 
0.044433357289597734

>  <metric>  (2) 
color

>  <metric_score>  (2) 
0.044

>  <template_pid>  (2) 
4IB5

>  <template_shape_score>  (2) 
0.208

>  <template_color_score>  (2) 
0.044

>  <template_combo_score>  (2) 
0.126

$$$$
4IB5_combo_pose
     RDKit          3D

 98101  0  0  0  0  0  0  0  0999 V2000
 -135.4987 -169.4523  361.2769 C   0  0  0  0  0  0  0  0  0  0  0  0
 -136.7590 -170.2552  361.4028 C   0  0  0  0  0  0  0  0  0  0  0  0
 -136.8632 -171.0098  362.7310 C   0  0  2  0  0  0  0  0  0  0  0  0
 -135.6453 -171.9471  362.8516 C   0  0  0  0  0  0  0  0  0  0  0  0
 -138.0946 -171.8321  362.7869 C   0  0  2  0  0  0  0  0  0  0  0  0
 -139.2777 -171.0094  362.6593 N   0  0  0  0  0  0  0  0  0  0  0  0
 -140.4347 -171.6167  362.1172 C   0  0  0  0  0  0  0  0  0  0  0  0
 -140.3139 -172.7857  361.7514 O   0  0  0  0  0  0  0  0  0  0  0  0
 -141.7688 -170.9369  361.9733 C   0  0  2  0  0  0  0  0  0  0  0  0
 -142.0184 -170.2333  363.3238 C   0  0  0  0  0  0  0  0  0  0  0  0
 -143.3365 -169.5358  363.2587 C   0  0  0  0  0  0  0  0  0  0  0  0
 -143.6079 -168.7653  364.5533 C   0  0  0  0  0  0  0  0  0  0  0  0
 -143.6281 -169.6374  365.7668 C   0  0  0  0  0  0  0  0  0  0  0  0
 -143.8660 -168.8109  366.9279 N   0  0  0  0  0  0  0  0  0  0  0  0
 -142.7993 -171.9255  361.8171 N   0  0  0  0  0  0  0  0  0  0  0  0
 -144.0256 -171.8250  361.1102 C   0  0  0  0  0  0  0  0  0  0  0  0
 -144.2296 -170.7557  360.5341 O   0  0  0  0  0  0  0  0  0  0  0  0
 -144.9204 -173.0021  361.1507 C   0  0  2  0  0  0  0  0  0  0  0  0
 -144.4184 -174.1775  360.4148 C   0  0  0  0  0  0  0  0  0  0  0  0
 -143.2057 -174.8640  360.7884 C   0  0  0  0  0  0  0  0  0  0  0  0
 -143.2975 -175.7377  361.9005 C   0  0  0  0  0  0  0  0  0  0  0  0
 -142.2432 -176.5227  362.2856 C   0  0  0  0  0  0  0  0  0  0  0  0
 -141.0396 -176.5149  361.6257 C   0  0  0  0  0  0  0  0  0  0  0  0
 -140.9374 -175.6622  360.5361 C   0  0  0  0  0  0  0  0  0  0  0  0
 -142.0013 -174.8532  360.1295 C   0  0  0  0  0  0  0  0  0  0  0  0
 -146.2984 -172.7236  360.8331 N   0  0  0  0  0  0  0  0  0  0  0  0
 -147.1138 -171.6983  361.3855 C   0  0  0  0  0  0  0  0  0  0  0  0
 -146.4856 -170.7782  361.9353 O   0  0  0  0  0  0  0  0  0  0  0  0
 -148.6196 -171.7194  361.2866 C   0  0  0  0  0  0  0  0  0  0  0  0
 -149.0790 -173.0574  360.7860 N   0  0  0  0  0  0  0  0  0  0  0  0
 -148.6246 -174.0959  361.6418 C   0  0  0  0  0  0  0  0  0  0  0  0
 -147.9085 -173.4630  362.5967 O   0  0  0  0  0  0  0  0  0  0  0  0
 -148.6737 -175.4688  361.7974 C   0  0  2  0  0  0  0  0  0  0  0  0
 -148.0166 -176.2147  360.6186 C   0  0  0  0  0  0  0  0  0  0  0  0
 -148.6060 -176.0797  359.3165 C   0  0  0  0  0  0  0  0  0  0  0  0
 -149.6061 -177.0314  358.9787 C   0  0  0  0  0  0  0  0  0  0  0  0
 -150.2256 -177.0628  357.7791 C   0  0  0  0  0  0  0  0  0  0  0  0
 -149.9150 -176.1471  356.7824 C   0  0  0  0  0  0  0  0  0  0  0  0
 -150.5950 -176.2524  355.5814 O   0  0  0  0  0  0  0  0  0  0  0  0
 -148.9644 -175.2231  357.0707 C   0  0  0  0  0  0  0  0  0  0  0  0
 -148.3201 -175.1904  358.3186 C   0  0  0  0  0  0  0  0  0  0  0  0
 -149.9964 -176.1643  361.8550 N   0  0  0  0  0  0  0  0  0  0  0  0
 -150.0019 -177.3312  362.6334 C   0  0  0  0  0  0  0  0  0  0  0  0
 -148.8859 -177.6319  363.1691 O   0  0  0  0  0  0  0  0  0  0  0  0
 -151.0866 -178.2735  362.9274 C   0  0  2  0  0  0  0  0  0  0  0  0
 -152.1093 -177.8961  363.9059 C   0  0  0  0  0  0  0  0  0  0  0  0
 -152.9229 -176.6841  363.6450 C   0  0  0  0  0  0  0  0  0  0  0  0
 -153.7022 -176.7465  362.3488 C   0  0  0  0  0  0  0  0  0  0  0  0
 -152.2699 -175.3614  363.8454 C   0  0  0  0  0  0  0  0  0  0  0  0
 -150.2670 -179.3812  363.5417 N   0  0  0  0  0  0  0  0  0  0  0  0
 -149.9148 -180.4811  362.7284 C   0  0  0  0  0  0  0  0  0  0  0  0
 -150.4044 -180.4187  361.5541 O   0  0  0  0  0  0  0  0  0  0  0  0
 -149.0990 -181.6404  363.0318 C   0  0  2  0  0  0  0  0  0  0  0  0
 -150.0953 -182.8284  362.9331 C   0  0  0  0  0  0  0  0  0  0  0  0
 -149.4322 -184.1376  363.1817 C   0  0  0  0  0  0  0  0  0  0  0  0
 -148.3739 -184.5102  362.1683 C   0  0  0  0  0  0  0  0  0  0  0  0
 -147.8482 -185.8053  362.5877 N   0  0  0  0  0  0  0  0  0  0  0  0
 -146.8632 -186.5017  361.8300 C   0  0  0  0  0  0  0  0  0  0  0  0
 -146.3181 -187.7473  362.1889 N   0  0  0  0  0  0  0  0  0  0  0  0
 -146.4617 -185.9086  360.7380 N   0  0  0  0  0  0  0  0  0  0  0  0
 -148.4585 -181.6900  364.3310 N   0  0  0  0  0  0  0  0  0  0  0  0
 -147.0031 -181.7783  364.4571 C   0  0  0  0  0  0  0  0  0  0  0  0
 -146.4276 -181.6294  363.3608 O   0  0  0  0  0  0  0  0  0  0  0  0
 -146.3657 -182.0140  365.7465 C   0  0  1  0  0  0  0  0  0  0  0  0
 -144.9191 -182.1223  365.4666 N   0  0  0  0  0  0  0  0  0  0  0  0
 -144.1891 -181.0954  364.8285 C   0  0  0  0  0  0  0  0  0  0  0  0
 -144.7038 -180.0012  364.4534 O   0  0  0  0  0  0  0  0  0  0  0  0
 -142.7277 -181.3575  364.6000 C   0  0  0  0  0  0  0  0  0  0  0  0
 -142.1082 -180.2228  363.9482 N   0  0  0  0  0  0  0  0  0  0  0  0
 -146.4888 -180.9979  366.8461 C   0  0  0  0  0  0  0  0  0  0  0  0
 -145.7841 -181.9146  368.2878 S   0  0  0  0  0  0  0  0  0  0  0  0
 -143.7209 -182.1932  368.1733 S   0  0  0  0  0  0  0  0  0  0  0  0
 -142.8292 -181.0280  369.1058 C   0  0  0  0  0  0  0  0  0  0  0  0
 -142.7229 -179.5970  368.8798 C   0  0  1  0  0  0  0  0  0  0  0  0
 -141.7980 -179.1183  370.0677 C   0  0  0  0  0  0  0  0  0  0  0  0
 -140.6777 -178.6547  369.8126 O   0  0  0  0  0  0  0  0  0  0  0  0
 -142.3311 -179.2600  371.3899 N   0  0  0  0  0  0  0  0  0  0  0  0
 -141.5840 -178.8704  372.5722 C   0  0  0  0  0  0  0  0  0  0  0  0
 -142.4114 -179.1481  373.7590 C   0  0  0  0  0  0  0  0  0  0  0  0
 -143.5663 -179.6600  373.5469 O   0  0  0  0  0  0  0  0  0  0  0  0
 -141.9823 -178.8734  375.0474 O   0  0  0  0  0  0  0  0  0  0  0  0
 -141.9537 -179.1527  367.7464 N   0  0  0  0  0  0  0  0  0  0  0  0
 -141.6341 -177.7751  367.5765 C   0  0  0  0  0  0  0  0  0  0  0  0
 -141.9972 -177.0088  368.4749 O   0  0  0  0  0  0  0  0  0  0  0  0
 -140.9010 -177.2120  366.4240 C   0  0  0  0  0  0  0  0  0  0  0  0
 -140.5630 -175.8136  366.6522 N   0  0  0  0  0  0  0  0  0  0  0  0
 -139.9291 -174.9861  365.6702 C   0  0  0  0  0  0  0  0  0  0  0  0
 -139.7179 -175.5258  364.5873 O   0  0  0  0  0  0  0  0  0  0  0  0
 -139.5644 -173.5478  365.9841 C   0  0  2  0  0  0  0  0  0  0  0  0
 -140.3193 -172.9515  367.0910 C   0  0  0  0  0  0  0  0  0  0  0  0
 -141.7756 -172.9059  366.9775 C   0  0  0  0  0  0  0  0  0  0  0  0
 -142.6145 -173.3744  365.9519 C   0  0  0  0  0  0  0  0  0  0  0  0
 -143.8897 -173.0989  366.3626 N   0  0  0  0  0  0  0  0  0  0  0  0
 -143.8296 -172.4954  367.5708 C   0  0  0  0  0  0  0  0  0  0  0  0
 -142.5685 -172.3672  367.9621 N   0  0  0  0  0  0  0  0  0  0  0  0
 -139.3759 -172.7866  364.7886 N   0  0  0  0  0  0  0  0  0  0  0  0
 -138.1521 -172.6531  364.0443 C   0  0  0  0  0  0  0  0  0  0  0  0
 -137.1938 -173.2670  364.5247 O   0  0  0  0  0  0  0  0  0  0  0  0
  1  2  1  0
  2  3  1  0
  3  4  1  6
  3  5  1  0
  5  6  1  1
  6  7  1  0
  7  8  2  0
  7  9  1  0
  9 10  1  1
 10 11  1  0
 11 12  1  0
 12 13  1  0
 13 14  1  0
  9 15  1  0
 15 16  1  0
 16 17  2  0
 16 18  1  0
 18 19  1  6
 19 20  1  0
 20 21  2  0
 21 22  1  0
 22 23  2  0
 23 24  1  0
 24 25  2  0
 18 26  1  0
 26 27  1  0
 27 28  2  0
 27 29  1  0
 29 30  1  0
 30 31  1  0
 31 32  2  0
 31 33  1  0
 33 34  1  6
 34 35  1  0
 35 36  2  0
 36 37  1  0
 37 38  2  0
 38 39  1  0
 38 40  1  0
 40 41  2  0
 33 42  1  0
 42 43  1  0
 43 44  2  0
 43 45  1  0
 45 46  1  1
 46 47  1  0
 47 48  1  0
 47 49  1  0
 45 50  1  0
 50 51  1  0
 51 52  2  0
 51 53  1  0
 53 54  1  1
 54 55  1  0
 55 56  1  0
 56 57  1  0
 57 58  1  0
 58 59  1  0
 58 60  2  0
 53 61  1  0
 61 62  1  0
 62 63  2  0
 62 64  1  0
 64 65  1  6
 65 66  1  0
 66 67  2  0
 66 68  1  0
 68 69  1  0
 64 70  1  0
 70 71  1  0
 71 72  1  0
 72 73  1  0
 73 74  1  0
 74 75  1  1
 75 76  2  0
 75 77  1  0
 77 78  1  0
 78 79  1  0
 79 80  2  0
 79 81  1  0
 74 82  1  0
 82 83  1  0
 83 84  2  0
 83 85  1  0
 85 86  1  0
 86 87  1  0
 87 88  2  0
 87 89  1  0
 89 90  1  1
 90 91  1  0
 91 92  2  0
 92 93  1  0
 93 94  1  0
 94 95  2  0
 89 96  1  0
 96 97  1  0
 97 98  2  0
 97  5  1  0
 25 20  1  0
 41 35  1  0
 95 91  1  0
M  CHG  4  14   1  60   1  69   1  81  -1
M  END
>  <shape_align_shape_tanimoto>  (3) 
0.26021992336470884

>  <shape_align_color_tanimoto>  (3) 
0.038021380348868351

>  <metric>  (3) 
combo

>  <metric_score>  (3) 
0.149

>  <template_pid>  (3) 
4IB5

>  <template_shape_score>  (3) 
0.260

>  <template_color_score>  (3) 
0.038

>  <template_combo_score>  (3) 
0.149

$$$$
