1YMX_shape_pose
     RDKit          3D

 24 25  0  0  0  0  0  0  0  0999 V2000
  -33.0589   90.9861   14.9461 C   0  0  0  0  0  0  0  0  0  0  0  0
  -32.9978   92.1123   15.7105 O   0  0  0  0  0  0  0  0  0  0  0  0
  -32.5075   91.9888   16.9559 C   0  0  2  0  0  0  0  0  0  0  0  0
  -32.5574   93.4654   17.4760 C   0  0  0  0  0  0  0  0  0  0  0  0
  -31.5621   93.9894   17.8758 O   0  0  0  0  0  0  0  0  0  0  0  0
  -31.1528   91.6001   17.1570 N   0  0  0  0  0  0  0  0  0  0  0  0
  -30.0277   92.2645   16.6530 C   0  0  0  0  0  0  0  0  0  0  0  0
  -30.0794   93.2882   15.9327 O   0  0  0  0  0  0  0  0  0  0  0  0
  -28.6882   91.6510   17.0616 C   0  0  0  0  0  0  0  0  0  0  0  0
  -28.8045   91.2654   18.4173 C   0  0  0  0  0  0  0  0  0  0  0  0
  -28.9757   90.0064   19.0076 C   0  0  0  0  0  0  0  0  0  0  0  0
  -29.1374   89.9215   20.3158 C   0  0  0  0  0  0  0  0  0  0  0  0
  -29.1346   91.0732   21.0757 C   0  0  0  0  0  0  0  0  0  0  0  0
  -28.8823   92.4309   19.8861 S   0  0  0  0  0  0  0  0  0  0  0  0
  -33.4478   91.3083   17.9718 C   0  0  2  0  0  0  0  0  0  0  0  0
  -34.6163   92.1124   18.2448 N   0  0  0  0  0  0  0  0  0  0  0  0
  -35.0518   92.4836   19.5499 C   0  0  0  0  0  0  0  0  0  0  0  0
  -36.4892   92.8684   19.6154 C   0  0  0  0  0  0  0  0  0  0  0  0
  -37.2133   92.8531   18.5883 O   0  0  0  0  0  0  0  0  0  0  0  0
  -37.0980   93.2610   20.7941 O   0  0  0  0  0  0  0  0  0  0  0  0
  -34.2760   92.5232   20.6148 C   0  0  0  0  0  0  0  0  0  0  0  0
  -34.8312   92.9242   21.9373 C   0  0  0  0  0  0  0  0  0  0  0  0
  -32.8140   92.2084   20.6072 C   0  0  0  0  0  0  0  0  0  0  0  0
  -32.5220   90.8788   19.4362 S   0  0  0  0  0  0  0  0  0  0  0  0
  1  2  1  0
  2  3  1  0
  3  4  1  0
  4  5  2  0
  3  6  1  6
  6  7  1  0
  7  8  2  0
  7  9  1  0
  9 10  1  0
 10 11  2  0
 11 12  1  0
 12 13  2  0
 13 14  1  0
  3 15  1  0
 15 16  1  1
 16 17  1  0
 17 18  1  0
 18 19  2  0
 18 20  1  0
 17 21  2  0
 21 22  1  0
 21 23  1  0
 23 24  1  0
 14 10  1  0
 24 15  1  0
M  CHG  1  20  -1
M  END
>  <shape_align_shape_tanimoto>  (1) 
0.73335952581330732

>  <shape_align_color_tanimoto>  (1) 
0.040977228494767072

>  <metric>  (1) 
shape

>  <metric_score>  (1) 
0.733

>  <template_pid>  (1) 
1YMX

>  <template_shape_score>  (1) 
0.733

>  <template_color_score>  (1) 
0.041

>  <template_combo_score>  (1) 
0.387

$$$$
1YMX_color_pose
     RDKit          3D

 24 25  0  0  0  0  0  0  0  0999 V2000
  -32.1415   94.6913   17.9596 C   0  0  0  0  0  0  0  0  0  0  0  0
  -31.4400   93.4701   17.8582 O   0  0  0  0  0  0  0  0  0  0  0  0
  -32.3922   92.4721   17.6465 C   0  0  2  0  0  0  0  0  0  0  0  0
  -33.0813   92.8800   16.3406 C   0  0  0  0  0  0  0  0  0  0  0  0
  -34.2867   93.0564   16.4072 O   0  0  0  0  0  0  0  0  0  0  0  0
  -33.4075   92.4058   18.6464 N   0  0  0  0  0  0  0  0  0  0  0  0
  -33.1969   92.0890   20.0155 C   0  0  0  0  0  0  0  0  0  0  0  0
  -32.0603   91.8474   20.4154 O   0  0  0  0  0  0  0  0  0  0  0  0
  -34.3447   92.0435   20.9881 C   0  0  0  0  0  0  0  0  0  0  0  0
  -35.5385   92.4443   20.3061 C   0  0  0  0  0  0  0  0  0  0  0  0
  -36.4808   91.7042   19.6032 C   0  0  0  0  0  0  0  0  0  0  0  0
  -37.5214   92.3034   19.0474 C   0  0  0  0  0  0  0  0  0  0  0  0
  -37.6362   93.6887   19.1914 C   0  0  0  0  0  0  0  0  0  0  0  0
  -36.1521   94.1681   20.1917 S   0  0  0  0  0  0  0  0  0  0  0  0
  -31.7106   91.1931   17.2978 C   0  0  2  0  0  0  0  0  0  0  0  0
  -30.7826   90.6700   18.2579 N   0  0  0  0  0  0  0  0  0  0  0  0
  -29.4916   91.1828   18.5352 C   0  0  0  0  0  0  0  0  0  0  0  0
  -28.9328   90.8178   19.8590 C   0  0  0  0  0  0  0  0  0  0  0  0
  -29.5917   90.0835   20.6644 O   0  0  0  0  0  0  0  0  0  0  0  0
  -27.6998   91.2313   20.3039 O   0  0  0  0  0  0  0  0  0  0  0  0
  -28.7794   91.9165   17.7035 C   0  0  0  0  0  0  0  0  0  0  0  0
  -27.4401   92.3865   18.1333 C   0  0  0  0  0  0  0  0  0  0  0  0
  -29.2065   92.3084   16.3345 C   0  0  0  0  0  0  0  0  0  0  0  0
  -30.7144   91.5129   15.7853 S   0  0  0  0  0  0  0  0  0  0  0  0
  1  2  1  0
  2  3  1  0
  3  4  1  0
  4  5  2  0
  3  6  1  1
  6  7  1  0
  7  8  2  0
  7  9  1  0
  9 10  1  0
 10 11  2  0
 11 12  1  0
 12 13  2  0
 13 14  1  0
  3 15  1  0
 15 16  1  1
 16 17  1  0
 17 18  1  0
 18 19  2  0
 18 20  1  0
 17 21  2  0
 21 22  1  0
 21 23  1  0
 23 24  1  0
 14 10  1  0
 24 15  1  0
M  CHG  1  20  -1
M  END
>  <shape_align_shape_tanimoto>  (2) 
0.71809786972590206

>  <shape_align_color_tanimoto>  (2) 
0.14981966803285637

>  <metric>  (2) 
color

>  <metric_score>  (2) 
0.150

>  <template_pid>  (2) 
1YMX

>  <template_shape_score>  (2) 
0.718

>  <template_color_score>  (2) 
0.150

>  <template_combo_score>  (2) 
0.434

$$$$
1YMX_combo_pose
     RDKit          3D

 24 25  0  0  0  0  0  0  0  0999 V2000
  -32.1415   94.6913   17.9596 C   0  0  0  0  0  0  0  0  0  0  0  0
  -31.4400   93.4701   17.8582 O   0  0  0  0  0  0  0  0  0  0  0  0
  -32.3922   92.4721   17.6465 C   0  0  2  0  0  0  0  0  0  0  0  0
  -33.0813   92.8800   16.3406 C   0  0  0  0  0  0  0  0  0  0  0  0
  -34.2867   93.0564   16.4072 O   0  0  0  0  0  0  0  0  0  0  0  0
  -33.4075   92.4058   18.6464 N   0  0  0  0  0  0  0  0  0  0  0  0
  -33.1969   92.0890   20.0155 C   0  0  0  0  0  0  0  0  0  0  0  0
  -32.0603   91.8474   20.4154 O   0  0  0  0  0  0  0  0  0  0  0  0
  -34.3447   92.0435   20.9881 C   0  0  0  0  0  0  0  0  0  0  0  0
  -35.5385   92.4443   20.3061 C   0  0  0  0  0  0  0  0  0  0  0  0
  -36.4808   91.7042   19.6032 C   0  0  0  0  0  0  0  0  0  0  0  0
  -37.5214   92.3034   19.0474 C   0  0  0  0  0  0  0  0  0  0  0  0
  -37.6362   93.6887   19.1914 C   0  0  0  0  0  0  0  0  0  0  0  0
  -36.1521   94.1681   20.1917 S   0  0  0  0  0  0  0  0  0  0  0  0
  -31.7106   91.1931   17.2978 C   0  0  2  0  0  0  0  0  0  0  0  0
  -30.7826   90.6700   18.2579 N   0  0  0  0  0  0  0  0  0  0  0  0
  -29.4916   91.1828   18.5352 C   0  0  0  0  0  0  0  0  0  0  0  0
  -28.9328   90.8178   19.8590 C   0  0  0  0  0  0  0  0  0  0  0  0
  -29.5917   90.0835   20.6644 O   0  0  0  0  0  0  0  0  0  0  0  0
  -27.6998   91.2313   20.3039 O   0  0  0  0  0  0  0  0  0  0  0  0
  -28.7794   91.9165   17.7035 C   0  0  0  0  0  0  0  0  0  0  0  0
  -27.4401   92.3865   18.1333 C   0  0  0  0  0  0  0  0  0  0  0  0
  -29.2065   92.3084   16.3345 C   0  0  0  0  0  0  0  0  0  0  0  0
  -30.7144   91.5129   15.7853 S   0  0  0  0  0  0  0  0  0  0  0  0
  1  2  1  0
  2  3  1  0
  3  4  1  0
  4  5  2  0
  3  6  1  1
  6  7  1  0
  7  8  2  0
  7  9  1  0
  9 10  1  0
 10 11  2  0
 11 12  1  0
 12 13  2  0
 13 14  1  0
  3 15  1  0
 15 16  1  1
 16 17  1  0
 17 18  1  0
 18 19  2  0
 18 20  1  0
 17 21  2  0
 21 22  1  0
 21 23  1  0
 23 24  1  0
 14 10  1  0
 24 15  1  0
M  CHG  1  20  -1
M  END
>  <shape_align_shape_tanimoto>  (3) 
0.71809786972590206

>  <shape_align_color_tanimoto>  (3) 
0.14981966803285637

>  <metric>  (3) 
combo

>  <metric_score>  (3) 
0.434

>  <template_pid>  (3) 
1YMX

>  <template_shape_score>  (3) 
0.718

>  <template_color_score>  (3) 
0.150

>  <template_combo_score>  (3) 
0.434

$$$$
