6OIP_shape_pose
     RDKit          3D

 25 27  0  0  0  0  0  0  0  0999 V2000
    5.7203   43.6098  -18.3092 C   0  0  0  0  0  0  0  0  0  0  0  0
    4.8394   44.3224  -17.3452 C   0  0  0  0  0  0  0  0  0  0  0  0
    5.3407   45.4235  -16.6902 C   0  0  0  0  0  0  0  0  0  0  0  0
    4.5031   46.0627  -15.8041 C   0  0  0  0  0  0  0  0  0  0  0  0
    3.2196   45.6308  -15.5739 C   0  0  0  0  0  0  0  0  0  0  0  0
    2.6891   44.5122  -16.2298 C   0  0  0  0  0  0  0  0  0  0  0  0
    1.3419   44.1396  -15.9239 C   0  0  0  0  0  0  0  0  0  0  0  0
    0.6781   44.8313  -15.0725 O   0  0  0  0  0  0  0  0  0  0  0  0
    0.6285   43.0469  -16.4785 N   0  0  0  0  0  0  0  0  0  0  0  0
   -0.6796   42.8244  -16.0699 N   0  0  0  0  0  0  0  0  0  0  0  0
   -0.7230   41.7840  -14.7132 S   0  0  0  0  0  0  0  0  0  0  0  0
   -0.1022   40.4676  -15.0835 O   0  0  0  0  0  0  0  0  0  0  0  0
   -2.1632   41.5631  -14.3491 O   0  0  0  0  0  0  0  0  0  0  0  0
    0.1231   42.5155  -13.3697 C   0  0  0  0  0  0  0  0  0  0  0  0
    1.4900   42.2324  -13.2780 C   0  0  0  0  0  0  0  0  0  0  0  0
    2.2643   42.7511  -12.2624 C   0  0  0  0  0  0  0  0  0  0  0  0
    1.6486   43.5639  -11.3312 C   0  0  0  0  0  0  0  0  0  0  0  0
    2.4591   44.0664  -10.3256 C   0  0  0  0  0  0  0  0  0  0  0  0
    1.8837   44.8830   -9.3746 C   0  0  0  0  0  0  0  0  0  0  0  0
    0.5376   45.1773   -9.4429 C   0  0  0  0  0  0  0  0  0  0  0  0
   -0.2679   44.6688  -10.4553 C   0  0  0  0  0  0  0  0  0  0  0  0
    0.3015   43.8451  -11.4185 C   0  0  0  0  0  0  0  0  0  0  0  0
   -0.4962   43.3270  -12.4418 C   0  0  0  0  0  0  0  0  0  0  0  0
    3.5358   43.8881  -17.1079 C   0  0  0  0  0  0  0  0  0  0  0  0
    3.1266   42.8109  -17.7850 F   0  0  0  0  0  0  0  0  0  0  0  0
  1  2  1  0
  2  3  2  0
  3  4  1  0
  4  5  2  0
  5  6  1  0
  6  7  1  0
  7  8  2  0
  7  9  1  0
  9 10  1  0
 10 11  1  0
 11 12  2  0
 11 13  2  0
 11 14  1  0
 14 15  2  0
 15 16  1  0
 16 17  2  0
 17 18  1  0
 18 19  2  0
 19 20  1  0
 20 21  2  0
 21 22  1  0
 22 23  2  0
  6 24  2  0
 24 25  1  0
 24  2  1  0
 23 14  1  0
 22 17  1  0
M  END
>  <shape_align_shape_tanimoto>  (1) 
0.18634396510289683

>  <shape_align_color_tanimoto>  (1) 
0.0061104275753257158

>  <metric>  (1) 
shape

>  <metric_score>  (1) 
0.186

>  <template_pid>  (1) 
6OIP

>  <template_shape_score>  (1) 
0.186

>  <template_color_score>  (1) 
0.006

>  <template_combo_score>  (1) 
0.096

$$$$
6OIP_color_pose
     RDKit          3D

 25 27  0  0  0  0  0  0  0  0999 V2000
    2.8713   40.8128  -10.3435 C   0  0  0  0  0  0  0  0  0  0  0  0
    1.5080   41.2248  -10.4778 C   0  0  0  0  0  0  0  0  0  0  0  0
    0.5615   40.4111  -10.0982 C   0  0  0  0  0  0  0  0  0  0  0  0
   -0.6718   40.8248  -10.2369 C   0  0  0  0  0  0  0  0  0  0  0  0
   -0.9378   42.0039  -10.7351 C   0  0  0  0  0  0  0  0  0  0  0  0
    0.0203   42.8389  -11.1242 C   0  0  0  0  0  0  0  0  0  0  0  0
   -0.3519   44.0564  -11.6359 C   0  0  0  0  0  0  0  0  0  0  0  0
   -1.5414   44.3136  -11.7045 O   0  0  0  0  0  0  0  0  0  0  0  0
    0.4661   45.0120  -12.0770 N   0  0  0  0  0  0  0  0  0  0  0  0
   -0.0030   46.1573  -12.5540 N   0  0  0  0  0  0  0  0  0  0  0  0
   -0.2745   46.1018  -14.1593 S   0  0  0  0  0  0  0  0  0  0  0  0
   -0.7416   47.4134  -14.5354 O   0  0  0  0  0  0  0  0  0  0  0  0
   -1.3268   45.1930  -14.4142 O   0  0  0  0  0  0  0  0  0  0  0  0
    1.0887   45.8097  -15.0489 C   0  0  0  0  0  0  0  0  0  0  0  0
    1.8672   46.7606  -15.5066 C   0  0  0  0  0  0  0  0  0  0  0  0
    2.9117   46.3938  -16.1945 C   0  0  0  0  0  0  0  0  0  0  0  0
    3.2099   45.1426  -16.4422 C   0  0  0  0  0  0  0  0  0  0  0  0
    4.2598   44.7763  -17.1336 C   0  0  0  0  0  0  0  0  0  0  0  0
    4.5428   43.5160  -17.3720 C   0  0  0  0  0  0  0  0  0  0  0  0
    3.7425   42.5878  -16.8992 C   0  0  0  0  0  0  0  0  0  0  0  0
    2.6787   42.9191  -16.2006 C   0  0  0  0  0  0  0  0  0  0  0  0
    2.4310   44.1876  -15.9845 C   0  0  0  0  0  0  0  0  0  0  0  0
    1.3805   44.5390  -15.2935 C   0  0  0  0  0  0  0  0  0  0  0  0
    1.2383   42.4078  -10.9776 C   0  0  0  0  0  0  0  0  0  0  0  0
    2.2232   43.1350  -11.3211 F   0  0  0  0  0  0  0  0  0  0  0  0
  1  2  1  0
  2  3  2  0
  3  4  1  0
  4  5  2  0
  5  6  1  0
  6  7  1  0
  7  8  2  0
  7  9  1  0
  9 10  1  0
 10 11  1  0
 11 12  2  0
 11 13  2  0
 11 14  1  0
 14 15  2  0
 15 16  1  0
 16 17  2  0
 17 18  1  0
 18 19  2  0
 19 20  1  0
 20 21  2  0
 21 22  1  0
 22 23  2  0
  6 24  2  0
 24 25  1  0
 24  2  1  0
 23 14  1  0
 22 17  1  0
M  END
>  <shape_align_shape_tanimoto>  (2) 
0.15695353715552324

>  <shape_align_color_tanimoto>  (2) 
0.024493012131087594

>  <metric>  (2) 
color

>  <metric_score>  (2) 
0.024

>  <template_pid>  (2) 
6OIP

>  <template_shape_score>  (2) 
0.157

>  <template_color_score>  (2) 
0.024

>  <template_combo_score>  (2) 
0.091

$$$$
6OIP_combo_pose
     RDKit          3D

 25 27  0  0  0  0  0  0  0  0999 V2000
    5.7203   43.6098  -18.3092 C   0  0  0  0  0  0  0  0  0  0  0  0
    4.8394   44.3224  -17.3452 C   0  0  0  0  0  0  0  0  0  0  0  0
    5.3407   45.4235  -16.6902 C   0  0  0  0  0  0  0  0  0  0  0  0
    4.5031   46.0627  -15.8041 C   0  0  0  0  0  0  0  0  0  0  0  0
    3.2196   45.6308  -15.5739 C   0  0  0  0  0  0  0  0  0  0  0  0
    2.6891   44.5122  -16.2298 C   0  0  0  0  0  0  0  0  0  0  0  0
    1.3419   44.1396  -15.9239 C   0  0  0  0  0  0  0  0  0  0  0  0
    0.6781   44.8313  -15.0725 O   0  0  0  0  0  0  0  0  0  0  0  0
    0.6285   43.0469  -16.4785 N   0  0  0  0  0  0  0  0  0  0  0  0
   -0.6796   42.8244  -16.0699 N   0  0  0  0  0  0  0  0  0  0  0  0
   -0.7230   41.7840  -14.7132 S   0  0  0  0  0  0  0  0  0  0  0  0
   -0.1022   40.4676  -15.0835 O   0  0  0  0  0  0  0  0  0  0  0  0
   -2.1632   41.5631  -14.3491 O   0  0  0  0  0  0  0  0  0  0  0  0
    0.1231   42.5155  -13.3697 C   0  0  0  0  0  0  0  0  0  0  0  0
    1.4900   42.2324  -13.2780 C   0  0  0  0  0  0  0  0  0  0  0  0
    2.2643   42.7511  -12.2624 C   0  0  0  0  0  0  0  0  0  0  0  0
    1.6486   43.5639  -11.3312 C   0  0  0  0  0  0  0  0  0  0  0  0
    2.4591   44.0664  -10.3256 C   0  0  0  0  0  0  0  0  0  0  0  0
    1.8837   44.8830   -9.3746 C   0  0  0  0  0  0  0  0  0  0  0  0
    0.5376   45.1773   -9.4429 C   0  0  0  0  0  0  0  0  0  0  0  0
   -0.2679   44.6688  -10.4553 C   0  0  0  0  0  0  0  0  0  0  0  0
    0.3015   43.8451  -11.4185 C   0  0  0  0  0  0  0  0  0  0  0  0
   -0.4962   43.3270  -12.4418 C   0  0  0  0  0  0  0  0  0  0  0  0
    3.5358   43.8881  -17.1079 C   0  0  0  0  0  0  0  0  0  0  0  0
    3.1266   42.8109  -17.7850 F   0  0  0  0  0  0  0  0  0  0  0  0
  1  2  1  0
  2  3  2  0
  3  4  1  0
  4  5  2  0
  5  6  1  0
  6  7  1  0
  7  8  2  0
  7  9  1  0
  9 10  1  0
 10 11  1  0
 11 12  2  0
 11 13  2  0
 11 14  1  0
 14 15  2  0
 15 16  1  0
 16 17  2  0
 17 18  1  0
 18 19  2  0
 19 20  1  0
 20 21  2  0
 21 22  1  0
 22 23  2  0
  6 24  2  0
 24 25  1  0
 24  2  1  0
 23 14  1  0
 22 17  1  0
M  END
>  <shape_align_shape_tanimoto>  (3) 
0.18634396510289683

>  <shape_align_color_tanimoto>  (3) 
0.0061104275753257158

>  <metric>  (3) 
combo

>  <metric_score>  (3) 
0.096

>  <template_pid>  (3) 
6OIP

>  <template_shape_score>  (3) 
0.186

>  <template_color_score>  (3) 
0.006

>  <template_combo_score>  (3) 
0.096

$$$$
