3MAX_shape_pose
     RDKit          3D

 22 24  0  0  0  0  0  0  0  0999 V2000
   42.6618   37.5236   85.1382 N   0  0  0  0  0  0  0  0  0  0  0  0
   43.4959   36.3858   85.2004 C   0  0  0  0  0  0  0  0  0  0  0  0
   43.9312   35.7071   84.0568 C   0  0  0  0  0  0  0  0  0  0  0  0
   44.7523   34.5896   84.1582 C   0  0  0  0  0  0  0  0  0  0  0  0
   45.1620   34.1179   85.4022 C   0  0  0  0  0  0  0  0  0  0  0  0
   46.0236   32.9457   85.5342 C   0  0  0  0  0  0  0  0  0  0  0  0
   46.8919   32.9271   86.6222 C   0  0  0  0  0  0  0  0  0  0  0  0
   47.7341   31.8637   86.8209 C   0  0  0  0  0  0  0  0  0  0  0  0
   47.7226   30.8053   85.9388 C   0  0  0  0  0  0  0  0  0  0  0  0
   46.8626   30.8264   84.8634 C   0  0  0  0  0  0  0  0  0  0  0  0
   46.0102   31.8924   84.6541 C   0  0  0  0  0  0  0  0  0  0  0  0
   44.7301   34.7900   86.5186 C   0  0  0  0  0  0  0  0  0  0  0  0
   43.9061   35.9114   86.4173 C   0  0  0  0  0  0  0  0  0  0  0  0
   43.5070   36.5468   87.6437 N   0  0  0  0  0  0  0  0  0  0  0  0
   44.3321   37.5751   88.1533 C   0  0  0  0  0  0  0  0  0  0  0  0
   45.3709   37.8863   87.5164 O   0  0  0  0  0  0  0  0  0  0  0  0
   44.0531   38.3071   89.3855 C   0  0  0  0  0  0  0  0  0  0  0  0
   44.9613   39.2895   89.7565 C   0  0  0  0  0  0  0  0  0  0  0  0
   44.7625   40.0337   90.9253 C   0  0  0  0  0  0  0  0  0  0  0  0
   43.6600   39.7772   91.6946 C   0  0  0  0  0  0  0  0  0  0  0  0
   42.7607   38.8096   91.3339 C   0  0  0  0  0  0  0  0  0  0  0  0
   42.9448   38.0561   90.1677 C   0  0  0  0  0  0  0  0  0  0  0  0
  1  2  1  0
  2  3  2  0
  3  4  1  0
  4  5  2  0
  5  6  1  0
  6  7  2  0
  7  8  1  0
  8  9  2  0
  9 10  1  0
 10 11  2  0
  5 12  1  0
 12 13  2  0
 13 14  1  0
 14 15  1  0
 15 16  2  0
 15 17  1  0
 17 18  2  0
 18 19  1  0
 19 20  2  0
 20 21  1  0
 21 22  2  0
 13  2  1  0
 22 17  1  0
 11  6  1  0
M  END
>  <shape_align_shape_tanimoto>  (1) 
0.83510873353377335

>  <shape_align_color_tanimoto>  (1) 
0.016955705916100444

>  <metric>  (1) 
shape

>  <metric_score>  (1) 
0.835

>  <template_pid>  (1) 
3MAX

>  <template_shape_score>  (1) 
0.835

>  <template_color_score>  (1) 
0.017

>  <template_combo_score>  (1) 
0.426

$$$$
3MAX_color_pose
     RDKit          3D

 22 24  0  0  0  0  0  0  0  0999 V2000
   43.5398   35.4903   84.2173 N   0  0  0  0  0  0  0  0  0  0  0  0
   43.6811   36.1899   85.4489 C   0  0  0  0  0  0  0  0  0  0  0  0
   43.2766   37.5192   85.5207 C   0  0  0  0  0  0  0  0  0  0  0  0
   43.4403   38.1392   86.7431 C   0  0  0  0  0  0  0  0  0  0  0  0
   43.9705   37.5064   87.8481 C   0  0  0  0  0  0  0  0  0  0  0  0
   44.0826   38.2951   89.0783 C   0  0  0  0  0  0  0  0  0  0  0  0
   43.1699   39.2979   89.3841 C   0  0  0  0  0  0  0  0  0  0  0  0
   43.3215   40.0062   90.5511 C   0  0  0  0  0  0  0  0  0  0  0  0
   44.3541   39.7454   91.4212 C   0  0  0  0  0  0  0  0  0  0  0  0
   45.2810   38.7472   91.1387 C   0  0  0  0  0  0  0  0  0  0  0  0
   45.1338   38.0218   89.9532 C   0  0  0  0  0  0  0  0  0  0  0  0
   44.3711   36.1876   87.7748 C   0  0  0  0  0  0  0  0  0  0  0  0
   44.2117   35.5545   86.5524 C   0  0  0  0  0  0  0  0  0  0  0  0
   44.5996   34.1921   86.3874 N   0  0  0  0  0  0  0  0  0  0  0  0
   45.9520   33.9681   85.9636 C   0  0  0  0  0  0  0  0  0  0  0  0
   46.6415   35.0125   85.7861 O   0  0  0  0  0  0  0  0  0  0  0  0
   46.4777   32.6234   85.7568 C   0  0  0  0  0  0  0  0  0  0  0  0
   45.7412   31.4791   85.9490 C   0  0  0  0  0  0  0  0  0  0  0  0
   46.3495   30.2623   85.7200 C   0  0  0  0  0  0  0  0  0  0  0  0
   47.6620   30.1998   85.3093 C   0  0  0  0  0  0  0  0  0  0  0  0
   48.4350   31.3387   85.1056 C   0  0  0  0  0  0  0  0  0  0  0  0
   47.8088   32.5449   85.3397 C   0  0  0  0  0  0  0  0  0  0  0  0
  1  2  1  0
  2  3  2  0
  3  4  1  0
  4  5  2  0
  5  6  1  0
  6  7  2  0
  7  8  1  0
  8  9  2  0
  9 10  1  0
 10 11  2  0
  5 12  1  0
 12 13  2  0
 13 14  1  0
 14 15  1  0
 15 16  2  0
 15 17  1  0
 17 18  2  0
 18 19  1  0
 19 20  2  0
 20 21  1  0
 21 22  2  0
 13  2  1  0
 22 17  1  0
 11  6  1  0
M  END
>  <shape_align_shape_tanimoto>  (2) 
0.6686662349374064

>  <shape_align_color_tanimoto>  (2) 
0.12632730097557826

>  <metric>  (2) 
color

>  <metric_score>  (2) 
0.126

>  <template_pid>  (2) 
3MAX

>  <template_shape_score>  (2) 
0.669

>  <template_color_score>  (2) 
0.126

>  <template_combo_score>  (2) 
0.397

$$$$
3MAX_combo_pose
     RDKit          3D

 22 24  0  0  0  0  0  0  0  0999 V2000
   42.6618   37.5236   85.1382 N   0  0  0  0  0  0  0  0  0  0  0  0
   43.4959   36.3858   85.2004 C   0  0  0  0  0  0  0  0  0  0  0  0
   43.9312   35.7071   84.0568 C   0  0  0  0  0  0  0  0  0  0  0  0
   44.7523   34.5896   84.1582 C   0  0  0  0  0  0  0  0  0  0  0  0
   45.1620   34.1179   85.4022 C   0  0  0  0  0  0  0  0  0  0  0  0
   46.0236   32.9457   85.5342 C   0  0  0  0  0  0  0  0  0  0  0  0
   46.8919   32.9271   86.6222 C   0  0  0  0  0  0  0  0  0  0  0  0
   47.7341   31.8637   86.8209 C   0  0  0  0  0  0  0  0  0  0  0  0
   47.7226   30.8053   85.9388 C   0  0  0  0  0  0  0  0  0  0  0  0
   46.8626   30.8264   84.8634 C   0  0  0  0  0  0  0  0  0  0  0  0
   46.0102   31.8924   84.6541 C   0  0  0  0  0  0  0  0  0  0  0  0
   44.7301   34.7900   86.5186 C   0  0  0  0  0  0  0  0  0  0  0  0
   43.9061   35.9114   86.4173 C   0  0  0  0  0  0  0  0  0  0  0  0
   43.5070   36.5468   87.6437 N   0  0  0  0  0  0  0  0  0  0  0  0
   44.3321   37.5751   88.1533 C   0  0  0  0  0  0  0  0  0  0  0  0
   45.3709   37.8863   87.5164 O   0  0  0  0  0  0  0  0  0  0  0  0
   44.0531   38.3071   89.3855 C   0  0  0  0  0  0  0  0  0  0  0  0
   44.9613   39.2895   89.7565 C   0  0  0  0  0  0  0  0  0  0  0  0
   44.7625   40.0337   90.9253 C   0  0  0  0  0  0  0  0  0  0  0  0
   43.6600   39.7772   91.6946 C   0  0  0  0  0  0  0  0  0  0  0  0
   42.7607   38.8096   91.3339 C   0  0  0  0  0  0  0  0  0  0  0  0
   42.9448   38.0561   90.1677 C   0  0  0  0  0  0  0  0  0  0  0  0
  1  2  1  0
  2  3  2  0
  3  4  1  0
  4  5  2  0
  5  6  1  0
  6  7  2  0
  7  8  1  0
  8  9  2  0
  9 10  1  0
 10 11  2  0
  5 12  1  0
 12 13  2  0
 13 14  1  0
 14 15  1  0
 15 16  2  0
 15 17  1  0
 17 18  2  0
 18 19  1  0
 19 20  2  0
 20 21  1  0
 21 22  2  0
 13  2  1  0
 22 17  1  0
 11  6  1  0
M  END
>  <shape_align_shape_tanimoto>  (3) 
0.83510873353377335

>  <shape_align_color_tanimoto>  (3) 
0.016955705916100444

>  <metric>  (3) 
combo

>  <metric_score>  (3) 
0.426

>  <template_pid>  (3) 
3MAX

>  <template_shape_score>  (3) 
0.835

>  <template_color_score>  (3) 
0.017

>  <template_combo_score>  (3) 
0.426

$$$$
