3RBM_shape_pose
     RDKit          3D

 27 27  0  0  0  0  0  0  0  0999 V2000
   78.5554   71.7963   31.5347 C   0  0  0  0  0  0  0  0  0  0  0  0
   79.3176   72.2059   32.7543 C   0  0  0  0  0  0  0  0  0  0  0  0
   79.5518   71.2040   33.8010 C   0  0  0  0  0  0  0  0  0  0  0  0
   80.3651   70.0163   33.6903 C   0  0  0  0  0  0  0  0  0  0  0  0
   80.2265   68.9183   32.7539 C   0  0  0  0  0  0  0  0  0  0  0  0
   80.3800   68.9928   31.3002 C   0  0  0  0  0  0  0  0  0  0  0  0
   81.6686   69.4266   30.7156 C   0  0  0  0  0  0  0  0  0  0  0  0
   82.1889   70.7849   30.9841 C   0  0  0  0  0  0  0  0  0  0  0  0
   83.5280   70.8555   30.2350 C   0  0  0  0  0  0  0  0  0  0  0  0
   84.1892   72.1790   30.4050 C   0  0  0  0  0  0  0  0  0  0  0  0
   84.5113   72.5445   31.8186 C   0  0  0  0  0  0  0  0  0  0  0  0
   85.1862   73.8946   31.9574 C   0  0  0  0  0  0  0  0  0  0  0  0
   86.4258   73.8571   31.2083 N   0  0  0  0  0  0  0  0  0  0  0  0
   86.6693   74.1712   29.9244 C   0  0  0  0  0  0  0  0  0  0  0  0
   87.9993   73.9760   29.6661 C   0  0  0  0  0  0  0  0  0  0  0  0
   88.5828   73.5335   30.8141 N   0  0  0  0  0  0  0  0  0  0  0  0
   89.9955   73.2221   30.9124 C   0  0  0  0  0  0  0  0  0  0  0  0
   90.2578   71.7712   30.5670 C   0  0  0  0  0  0  0  0  0  0  0  0
   92.0182   71.3673   30.6848 P   0  0  0  0  0  0  0  0  0  0  0  0
   92.8681   72.6120   30.8279 O   0  0  0  0  0  0  0  0  0  0  0  0
   92.2101   70.3766   32.0656 O   0  0  0  0  0  0  0  0  0  0  0  0
   92.4611   70.4489   29.3607 O   0  0  0  0  0  0  0  0  0  0  0  0
   89.2760   70.6691   31.6065 P   0  0  0  0  0  0  0  0  0  0  0  0
   89.7091   69.2396   31.3431 O   0  0  0  0  0  0  0  0  0  0  0  0
   87.6483   70.7641   31.1845 O   0  0  0  0  0  0  0  0  0  0  0  0
   89.4935   71.0784   33.2362 O   0  0  0  0  0  0  0  0  0  0  0  0
   87.6172   73.4653   31.7438 C   0  0  0  0  0  0  0  0  0  0  0  0
  1  2  1  0
  2  3  1  0
  3  4  1  0
  4  5  1  0
  5  6  1  0
  6  7  1  0
  7  8  1  0
  8  9  1  0
  9 10  1  0
 10 11  1  0
 11 12  1  0
 12 13  1  0
 13 14  1  0
 14 15  2  0
 15 16  1  0
 16 17  1  0
 17 18  1  0
 18 19  1  0
 19 20  2  0
 19 21  1  0
 19 22  1  0
 18 23  1  0
 23 24  2  0
 23 25  1  0
 23 26  1  0
 16 27  2  0
 27 13  1  0
M  CHG  1  16   1
M  END
>  <shape_align_shape_tanimoto>  (1) 
0.62272696679577522

>  <shape_align_color_tanimoto>  (1) 
0.00018403589340239445

>  <metric>  (1) 
shape

>  <metric_score>  (1) 
0.623

>  <template_pid>  (1) 
3RBM

>  <template_shape_score>  (1) 
0.623

>  <template_color_score>  (1) 
0.000

>  <template_combo_score>  (1) 
0.311

$$$$
3RBM_color_pose
     RDKit          3D

 27 27  0  0  0  0  0  0  0  0999 V2000
   87.0154   67.7187   29.0544 C   0  0  0  0  0  0  0  0  0  0  0  0
   87.8965   68.1977   30.1730 C   0  0  0  0  0  0  0  0  0  0  0  0
   87.4816   67.6260   31.4563 C   0  0  0  0  0  0  0  0  0  0  0  0
   86.1547   67.8592   32.0225 C   0  0  0  0  0  0  0  0  0  0  0  0
   84.9439   67.4585   31.2814 C   0  0  0  0  0  0  0  0  0  0  0  0
   83.7158   67.7639   32.1784 C   0  0  0  0  0  0  0  0  0  0  0  0
   82.4672   67.3349   31.5425 C   0  0  0  0  0  0  0  0  0  0  0  0
   81.9197   67.8768   30.3378 C   0  0  0  0  0  0  0  0  0  0  0  0
   81.4392   69.2639   30.1245 C   0  0  0  0  0  0  0  0  0  0  0  0
   80.3575   69.6778   31.0515 C   0  0  0  0  0  0  0  0  0  0  0  0
   80.6296   69.9908   32.4500 C   0  0  0  0  0  0  0  0  0  0  0  0
   81.2600   71.2524   32.8255 C   0  0  0  0  0  0  0  0  0  0  0  0
   82.4588   71.7580   32.3103 N   0  0  0  0  0  0  0  0  0  0  0  0
   82.4787   72.5785   31.2079 C   0  0  0  0  0  0  0  0  0  0  0  0
   83.7221   73.0073   30.9255 C   0  0  0  0  0  0  0  0  0  0  0  0
   84.5307   72.4439   31.8764 N   0  0  0  0  0  0  0  0  0  0  0  0
   85.9335   72.7393   31.9141 C   0  0  0  0  0  0  0  0  0  0  0  0
   86.8383   71.9233   31.0929 C   0  0  0  0  0  0  0  0  0  0  0  0
   88.5736   72.4946   31.3288 P   0  0  0  0  0  0  0  0  0  0  0  0
   88.8975   72.7001   32.7696 O   0  0  0  0  0  0  0  0  0  0  0  0
   89.6637   71.4710   30.5891 O   0  0  0  0  0  0  0  0  0  0  0  0
   88.6916   74.0019   30.5483 O   0  0  0  0  0  0  0  0  0  0  0  0
   86.5425   72.0218   29.3172 P   0  0  0  0  0  0  0  0  0  0  0  0
   87.7922   71.5035   28.6203 O   0  0  0  0  0  0  0  0  0  0  0  0
   85.2639   71.0652   28.7913 O   0  0  0  0  0  0  0  0  0  0  0  0
   86.3903   73.6300   28.8037 O   0  0  0  0  0  0  0  0  0  0  0  0
   83.7502   71.7044   32.6845 C   0  0  0  0  0  0  0  0  0  0  0  0
  1  2  1  0
  2  3  1  0
  3  4  1  0
  4  5  1  0
  5  6  1  0
  6  7  1  0
  7  8  1  0
  8  9  1  0
  9 10  1  0
 10 11  1  0
 11 12  1  0
 12 13  1  0
 13 14  1  0
 14 15  2  0
 15 16  1  0
 16 17  1  0
 17 18  1  0
 18 19  1  0
 19 20  2  0
 19 21  1  0
 19 22  1  0
 18 23  1  0
 23 24  2  0
 23 25  1  0
 23 26  1  0
 16 27  2  0
 27 13  1  0
M  CHG  1  16   1
M  END
>  <shape_align_shape_tanimoto>  (2) 
0.42630885877283764

>  <shape_align_color_tanimoto>  (2) 
0.10382852275773101

>  <metric>  (2) 
color

>  <metric_score>  (2) 
0.104

>  <template_pid>  (2) 
3RBM

>  <template_shape_score>  (2) 
0.426

>  <template_color_score>  (2) 
0.104

>  <template_combo_score>  (2) 
0.265

$$$$
3RBM_combo_pose
     RDKit          3D

 27 27  0  0  0  0  0  0  0  0999 V2000
   89.3092   70.0588   28.9100 C   0  0  0  0  0  0  0  0  0  0  0  0
   89.9119   68.9021   29.6036 C   0  0  0  0  0  0  0  0  0  0  0  0
   90.7609   69.1116   30.8121 C   0  0  0  0  0  0  0  0  0  0  0  0
   91.9408   70.0006   30.6460 C   0  0  0  0  0  0  0  0  0  0  0  0
   91.7375   71.4554   30.4939 C   0  0  0  0  0  0  0  0  0  0  0  0
   91.3167   72.2473   31.6511 C   0  0  0  0  0  0  0  0  0  0  0  0
   90.1648   72.0672   32.4920 C   0  0  0  0  0  0  0  0  0  0  0  0
   88.7715   72.1004   32.0493 C   0  0  0  0  0  0  0  0  0  0  0  0
   88.3221   73.3438   31.3706 C   0  0  0  0  0  0  0  0  0  0  0  0
   86.8941   73.3286   30.9457 C   0  0  0  0  0  0  0  0  0  0  0  0
   86.5128   72.2500   29.9805 C   0  0  0  0  0  0  0  0  0  0  0  0
   85.0282   72.3220   29.6083 C   0  0  0  0  0  0  0  0  0  0  0  0
   84.1897   72.1749   30.7742 N   0  0  0  0  0  0  0  0  0  0  0  0
   83.7042   73.1205   31.6106 C   0  0  0  0  0  0  0  0  0  0  0  0
   82.9590   72.4344   32.5597 C   0  0  0  0  0  0  0  0  0  0  0  0
   82.9925   71.1087   32.3046 N   0  0  0  0  0  0  0  0  0  0  0  0
   82.3533   70.0613   33.0470 C   0  0  0  0  0  0  0  0  0  0  0  0
   80.9672   69.7451   32.5706 C   0  0  0  0  0  0  0  0  0  0  0  0
   81.0103   69.2215   30.8569 P   0  0  0  0  0  0  0  0  0  0  0  0
   79.6399   68.6495   30.5178 O   0  0  0  0  0  0  0  0  0  0  0  0
   82.1384   67.9576   30.7347 O   0  0  0  0  0  0  0  0  0  0  0  0
   81.4220   70.4600   29.8056 O   0  0  0  0  0  0  0  0  0  0  0  0
   79.7749   71.0420   32.9025 P   0  0  0  0  0  0  0  0  0  0  0  0
   78.3956   70.3779   32.9415 O   0  0  0  0  0  0  0  0  0  0  0  0
   79.8013   72.3021   31.8077 O   0  0  0  0  0  0  0  0  0  0  0  0
   80.0335   71.6465   34.4559 O   0  0  0  0  0  0  0  0  0  0  0  0
   83.7522   70.9592   31.2040 C   0  0  0  0  0  0  0  0  0  0  0  0
  1  2  1  0
  2  3  1  0
  3  4  1  0
  4  5  1  0
  5  6  1  0
  6  7  1  0
  7  8  1  0
  8  9  1  0
  9 10  1  0
 10 11  1  0
 11 12  1  0
 12 13  1  0
 13 14  1  0
 14 15  2  0
 15 16  1  0
 16 17  1  0
 17 18  1  0
 18 19  1  0
 19 20  2  0
 19 21  1  0
 19 22  1  0
 18 23  1  0
 23 24  2  0
 23 25  1  0
 23 26  1  0
 16 27  2  0
 27 13  1  0
M  CHG  1  16   1
M  END
>  <shape_align_shape_tanimoto>  (3) 
0.59681792054788851

>  <shape_align_color_tanimoto>  (3) 
0.044783221842037216

>  <metric>  (3) 
combo

>  <metric_score>  (3) 
0.321

>  <template_pid>  (3) 
3RBM

>  <template_shape_score>  (3) 
0.597

>  <template_color_score>  (3) 
0.045

>  <template_combo_score>  (3) 
0.321

$$$$
