6NRH_shape_pose
     RDKit          3D

 34 38  0  0  0  0  0  0  0  0999 V2000
   89.3021   93.9670  -46.3548 N   0  0  0  0  0  0  0  0  0  0  0  0
   89.8026   93.4226  -45.1509 C   0  0  0  0  0  0  0  0  0  0  0  0
   88.9870   92.8009  -44.4175 O   0  0  0  0  0  0  0  0  0  0  0  0
   91.2029   93.5787  -44.7799 C   0  0  0  0  0  0  0  0  0  0  0  0
   92.1205   94.2327  -45.5791 C   0  0  0  0  0  0  0  0  0  0  0  0
   93.4312   94.3536  -45.1687 C   0  0  0  0  0  0  0  0  0  0  0  0
   93.8690   93.8349  -43.9647 C   0  0  0  0  0  0  0  0  0  0  0  0
   92.9413   93.1854  -43.1791 C   0  0  0  0  0  0  0  0  0  0  0  0
   91.6169   93.0421  -43.5542 C   0  0  0  0  0  0  0  0  0  0  0  0
   90.9086   92.3496  -42.5794 O   0  0  0  0  0  0  0  0  0  0  0  0
   91.6300   92.3653  -41.3473 C   0  0  2  0  0  0  0  0  0  0  0  0
   91.1851   93.5379  -40.4933 C   0  0  0  0  0  0  0  0  0  0  0  0
   91.4263   94.8303  -41.1888 C   0  0  0  0  0  0  0  0  0  0  0  0
   90.4292   95.3254  -42.0021 C   0  0  0  0  0  0  0  0  0  0  0  0
   90.6490   96.5262  -42.6628 C   0  0  0  0  0  0  0  0  0  0  0  0
   91.8437   97.2071  -42.5042 C   0  0  0  0  0  0  0  0  0  0  0  0
   92.0907   98.4408  -43.1973 C   0  0  0  0  0  0  0  0  0  0  0  0
   93.2332   98.5401  -43.7798 O   0  0  0  0  0  0  0  0  0  0  0  0
   91.2407   99.5378  -43.3142 N   0  0  0  0  0  0  0  0  0  0  0  0
   91.7212  100.6952  -44.0951 C   0  0  0  0  0  0  0  0  0  0  0  0
   90.8210  100.8130  -45.3378 C   0  0  0  0  0  0  0  0  0  0  0  0
   89.6835   99.9095  -45.1444 N   0  0  0  0  0  0  0  0  0  0  0  0
   89.2993   99.0163  -46.1978 C   0  0  0  0  0  0  0  0  0  0  0  0
   89.9836   98.9407  -47.3505 N   0  0  0  0  0  0  0  0  0  0  0  0
   89.6236   98.0986  -48.3475 C   0  0  0  0  0  0  0  0  0  0  0  0
   88.5224   97.2824  -48.1980 C   0  0  0  0  0  0  0  0  0  0  0  0
   87.8315   97.3841  -46.9882 C   0  0  0  0  0  0  0  0  0  0  0  0
   88.2216   98.2288  -46.0310 N   0  0  0  0  0  0  0  0  0  0  0  0
   88.9598   99.9152  -43.9009 C   0  0  0  0  0  0  0  0  0  0  0  0
   89.9186   99.6753  -42.7553 C   0  0  0  0  0  0  0  0  0  0  0  0
   92.8487   96.6958  -41.6748 C   0  0  0  0  0  0  0  0  0  0  0  0
   92.6339   95.4900  -41.0091 C   0  0  0  0  0  0  0  0  0  0  0  0
   93.0169   92.5209  -41.8643 C   0  0  0  0  0  0  0  0  0  0  0  0
   94.0685   92.1473  -41.2742 O   0  0  0  0  0  0  0  0  0  0  0  0
  1  2  1  0
  2  3  2  0
  2  4  1  0
  4  5  2  0
  5  6  1  0
  6  7  2  0
  7  8  1  0
  8  9  2  0
  9 10  1  0
 10 11  1  0
 11 12  1  1
 12 13  1  0
 13 14  2  0
 14 15  1  0
 15 16  2  0
 16 17  1  0
 17 18  2  0
 17 19  1  0
 19 20  1  0
 20 21  1  0
 21 22  1  0
 22 23  1  0
 23 24  2  0
 24 25  1  0
 25 26  2  0
 26 27  1  0
 27 28  2  0
 22 29  1  0
 29 30  1  0
 16 31  1  0
 31 32  2  0
 11 33  1  0
 33 34  2  0
  9  4  1  0
 32 13  1  0
 33  8  1  0
 30 19  1  0
 28 23  1  0
M  END
>  <shape_align_shape_tanimoto>  (1) 
0.51688839809177511

>  <shape_align_color_tanimoto>  (1) 
0.023649329025866458

>  <metric>  (1) 
shape

>  <metric_score>  (1) 
0.517

>  <template_pid>  (1) 
6NRH

>  <template_shape_score>  (1) 
0.517

>  <template_color_score>  (1) 
0.024

>  <template_combo_score>  (1) 
0.270

$$$$
6NRH_color_pose
     RDKit          3D

 34 38  0  0  0  0  0  0  0  0999 V2000
   90.9766   91.6826  -46.8635 N   0  0  0  0  0  0  0  0  0  0  0  0
   91.1030   92.0578  -45.5112 C   0  0  0  0  0  0  0  0  0  0  0  0
   90.3197   92.9455  -45.0537 O   0  0  0  0  0  0  0  0  0  0  0  0
   92.0758   91.4931  -44.6013 C   0  0  0  0  0  0  0  0  0  0  0  0
   92.9680   90.5227  -45.0415 C   0  0  0  0  0  0  0  0  0  0  0  0
   93.8978   89.9924  -44.1463 C   0  0  0  0  0  0  0  0  0  0  0  0
   93.9647   90.3987  -42.8308 C   0  0  0  0  0  0  0  0  0  0  0  0
   93.0718   91.3706  -42.3885 C   0  0  0  0  0  0  0  0  0  0  0  0
   92.1678   91.8768  -43.2851 C   0  0  0  0  0  0  0  0  0  0  0  0
   91.3843   92.8278  -42.6185 O   0  0  0  0  0  0  0  0  0  0  0  0
   91.9645   93.1722  -41.3827 C   0  0  2  0  0  0  0  0  0  0  0  0
   92.8409   94.4032  -41.4683 C   0  0  0  0  0  0  0  0  0  0  0  0
   92.1169   95.6037  -41.9176 C   0  0  0  0  0  0  0  0  0  0  0  0
   92.0682   95.8521  -43.2747 C   0  0  0  0  0  0  0  0  0  0  0  0
   91.4058   96.9556  -43.7420 C   0  0  0  0  0  0  0  0  0  0  0  0
   90.7713   97.8472  -42.8799 C   0  0  0  0  0  0  0  0  0  0  0  0
   90.0989   98.9751  -43.5084 C   0  0  0  0  0  0  0  0  0  0  0  0
   88.8558   98.8451  -43.7024 O   0  0  0  0  0  0  0  0  0  0  0  0
   90.7641  100.1689  -43.8968 N   0  0  0  0  0  0  0  0  0  0  0  0
   92.1732  100.4083  -43.7125 C   0  0  0  0  0  0  0  0  0  0  0  0
   92.8141  101.1950  -44.8241 C   0  0  0  0  0  0  0  0  0  0  0  0
   91.9502  101.0851  -45.9829 N   0  0  0  0  0  0  0  0  0  0  0  0
   92.4223  100.4657  -47.1687 C   0  0  0  0  0  0  0  0  0  0  0  0
   93.7047  100.0202  -47.1399 N   0  0  0  0  0  0  0  0  0  0  0  0
   94.1875   99.4244  -48.2480 C   0  0  0  0  0  0  0  0  0  0  0  0
   93.4015   99.2739  -49.3733 C   0  0  0  0  0  0  0  0  0  0  0  0
   92.1148   99.7392  -49.3546 C   0  0  0  0  0  0  0  0  0  0  0  0
   91.6343  100.3329  -48.2495 N   0  0  0  0  0  0  0  0  0  0  0  0
   90.6094  101.6343  -45.8473 C   0  0  0  0  0  0  0  0  0  0  0  0
   89.9842  101.2285  -44.5295 C   0  0  0  0  0  0  0  0  0  0  0  0
   90.8123   97.6133  -41.5375 C   0  0  0  0  0  0  0  0  0  0  0  0
   91.4847   96.4943  -41.0737 C   0  0  0  0  0  0  0  0  0  0  0  0
   92.8717   92.0153  -41.0896 C   0  0  0  0  0  0  0  0  0  0  0  0
   93.3524   91.6740  -39.9834 O   0  0  0  0  0  0  0  0  0  0  0  0
  1  2  1  0
  2  3  2  0
  2  4  1  0
  4  5  2  0
  5  6  1  0
  6  7  2  0
  7  8  1  0
  8  9  2  0
  9 10  1  0
 10 11  1  0
 11 12  1  6
 12 13  1  0
 13 14  2  0
 14 15  1  0
 15 16  2  0
 16 17  1  0
 17 18  2  0
 17 19  1  0
 19 20  1  0
 20 21  1  0
 21 22  1  0
 22 23  1  0
 23 24  2  0
 24 25  1  0
 25 26  2  0
 26 27  1  0
 27 28  2  0
 22 29  1  0
 29 30  1  0
 16 31  1  0
 31 32  2  0
 11 33  1  0
 33 34  2  0
  9  4  1  0
 32 13  1  0
 33  8  1  0
 30 19  1  0
 28 23  1  0
M  END
>  <shape_align_shape_tanimoto>  (2) 
0.43784057394233827

>  <shape_align_color_tanimoto>  (2) 
0.05507295142192474

>  <metric>  (2) 
color

>  <metric_score>  (2) 
0.055

>  <template_pid>  (2) 
6NRH

>  <template_shape_score>  (2) 
0.438

>  <template_color_score>  (2) 
0.055

>  <template_combo_score>  (2) 
0.246

$$$$
6NRH_combo_pose
     RDKit          3D

 34 38  0  0  0  0  0  0  0  0999 V2000
   93.9807   90.9113  -41.5267 N   0  0  0  0  0  0  0  0  0  0  0  0
   93.2790   92.1344  -41.4134 C   0  0  0  0  0  0  0  0  0  0  0  0
   93.2973   92.7590  -40.2964 O   0  0  0  0  0  0  0  0  0  0  0  0
   92.5461   92.6774  -42.5544 C   0  0  0  0  0  0  0  0  0  0  0  0
   92.4739   91.9586  -43.7355 C   0  0  0  0  0  0  0  0  0  0  0  0
   91.8063   92.4013  -44.8530 C   0  0  0  0  0  0  0  0  0  0  0  0
   91.1723   93.6519  -44.7674 C   0  0  0  0  0  0  0  0  0  0  0  0
   91.2575   94.3449  -43.5880 C   0  0  0  0  0  0  0  0  0  0  0  0
   91.9257   93.9115  -42.4576 C   0  0  0  0  0  0  0  0  0  0  0  0
   91.8066   94.8804  -41.4330 O   0  0  0  0  0  0  0  0  0  0  0  0
   91.6520   96.0996  -42.1236 C   0  0  2  0  0  0  0  0  0  0  0  0
   91.3601   97.3260  -41.3738 C   0  0  0  0  0  0  0  0  0  0  0  0
   91.2517   98.4025  -42.4484 C   0  0  0  0  0  0  0  0  0  0  0  0
   90.0270   98.7802  -42.9432 C   0  0  0  0  0  0  0  0  0  0  0  0
   89.9867   99.6772  -44.0125 C   0  0  0  0  0  0  0  0  0  0  0  0
   91.2096  100.1411  -44.5198 C   0  0  0  0  0  0  0  0  0  0  0  0
   91.0811  101.0188  -45.6911 C   0  0  0  0  0  0  0  0  0  0  0  0
   90.7391  102.2199  -45.6042 O   0  0  0  0  0  0  0  0  0  0  0  0
   91.3740  100.3929  -46.9698 N   0  0  0  0  0  0  0  0  0  0  0  0
   91.7986   99.0082  -47.0171 C   0  0  0  0  0  0  0  0  0  0  0  0
   92.6977   98.8278  -48.2360 C   0  0  0  0  0  0  0  0  0  0  0  0
   91.7999   99.2005  -49.3543 N   0  0  0  0  0  0  0  0  0  0  0  0
   91.3273   98.1532  -50.1664 C   0  0  0  0  0  0  0  0  0  0  0  0
   91.5987   96.8914  -49.7135 N   0  0  0  0  0  0  0  0  0  0  0  0
   91.2127   95.7855  -50.3752 C   0  0  0  0  0  0  0  0  0  0  0  0
   90.5232   95.9041  -51.5442 C   0  0  0  0  0  0  0  0  0  0  0  0
   90.2469   97.1652  -52.0057 C   0  0  0  0  0  0  0  0  0  0  0  0
   90.6542   98.2659  -51.3076 N   0  0  0  0  0  0  0  0  0  0  0  0
   91.5046  100.5983  -49.4484 C   0  0  0  0  0  0  0  0  0  0  0  0
   91.1742  101.2243  -48.1342 C   0  0  0  0  0  0  0  0  0  0  0  0
   92.4066   99.7390  -43.9899 C   0  0  0  0  0  0  0  0  0  0  0  0
   92.4563   98.8541  -42.9343 C   0  0  0  0  0  0  0  0  0  0  0  0
   90.7240   95.6782  -43.1821 C   0  0  0  0  0  0  0  0  0  0  0  0
   89.7205   96.1631  -43.7222 O   0  0  0  0  0  0  0  0  0  0  0  0
  1  2  1  0
  2  3  2  0
  2  4  1  0
  4  5  2  0
  5  6  1  0
  6  7  2  0
  7  8  1  0
  8  9  2  0
  9 10  1  0
 10 11  1  0
 11 12  1  1
 12 13  1  0
 13 14  2  0
 14 15  1  0
 15 16  2  0
 16 17  1  0
 17 18  2  0
 17 19  1  0
 19 20  1  0
 20 21  1  0
 21 22  1  0
 22 23  1  0
 23 24  2  0
 24 25  1  0
 25 26  2  0
 26 27  1  0
 27 28  2  0
 22 29  1  0
 29 30  1  0
 16 31  1  0
 31 32  2  0
 11 33  1  0
 33 34  2  0
  9  4  1  0
 32 13  1  0
 33  8  1  0
 30 19  1  0
 28 23  1  0
M  END
>  <shape_align_shape_tanimoto>  (3) 
0.51564945645365201

>  <shape_align_color_tanimoto>  (3) 
0.025120227028615487

>  <metric>  (3) 
combo

>  <metric_score>  (3) 
0.270

>  <template_pid>  (3) 
6NRH

>  <template_shape_score>  (3) 
0.516

>  <template_color_score>  (3) 
0.025

>  <template_combo_score>  (3) 
0.270

$$$$
