5NVH_shape_pose
     RDKit          3D

 23 26  0  0  0  0  0  0  0  0999 V2000
   12.8009    2.6803   16.1725 O   0  0  0  0  0  0  0  0  0  0  0  0
   12.5262    3.9001   16.0154 C   0  0  0  0  0  0  0  0  0  0  0  0
   12.3342    4.7225   17.0916 N   0  0  0  0  0  0  0  0  0  0  0  0
   12.0407    6.0248   16.9557 C   0  0  0  0  0  0  0  0  0  0  0  0
   11.8269    6.9422   18.0792 C   0  0  0  0  0  0  0  0  0  0  0  0
   11.5272    8.2748   17.8362 C   0  0  0  0  0  0  0  0  0  0  0  0
   11.3194    9.1681   18.8779 C   0  0  0  0  0  0  0  0  0  0  0  0
   11.3953    8.7973   20.2122 C   0  0  0  0  0  0  0  0  0  0  0  0
   11.1765    9.6982   21.2968 N   0  0  0  0  0  0  0  0  0  0  0  0
   11.4624    9.3165   22.7000 C   0  0  0  0  0  0  0  0  0  0  0  0
   10.1237    9.1767   23.3642 C   0  0  0  0  0  0  0  0  0  0  0  0
    9.3540   10.4809   23.2416 C   0  0  0  0  0  0  0  0  0  0  0  0
    9.3031   11.0496   21.8579 C   0  0  0  0  0  0  0  0  0  0  0  0
   10.6503   11.0499   21.1326 C   0  0  0  0  0  0  0  0  0  0  0  0
   11.6957    7.4610   20.4616 C   0  0  0  0  0  0  0  0  0  0  0  0
   11.9072    6.5522   19.4059 C   0  0  0  0  0  0  0  0  0  0  0  0
   11.9404    6.5013   15.6873 N   0  0  0  0  0  0  0  0  0  0  0  0
   12.1105    5.7772   14.5793 C   0  0  0  0  0  0  0  0  0  0  0  0
   11.9878    6.3523   13.3175 C   0  0  0  0  0  0  0  0  0  0  0  0
   12.1770    5.5437   12.1926 C   0  0  0  0  0  0  0  0  0  0  0  0
   12.4836    4.1836   12.3113 C   0  0  0  0  0  0  0  0  0  0  0  0
   12.5951    3.6573   13.5997 C   0  0  0  0  0  0  0  0  0  0  0  0
   12.4138    4.4310   14.7231 C   0  0  0  0  0  0  0  0  0  0  0  0
  1  2  2  0
  2  3  1  0
  3  4  1  0
  4  5  1  0
  5  6  2  0
  6  7  1  0
  7  8  2  0
  8  9  1  0
  9 10  1  0
 10 11  1  0
 11 12  1  0
 12 13  1  0
 13 14  1  0
  8 15  1  0
 15 16  2  0
  4 17  2  0
 17 18  1  0
 18 19  2  0
 19 20  1  0
 20 21  2  0
 21 22  1  0
 22 23  2  0
 23  2  1  0
 16  5  1  0
 23 18  1  0
 14  9  1  0
M  END
>  <shape_align_shape_tanimoto>  (1) 
0.78625936567040289

>  <shape_align_color_tanimoto>  (1) 
0.12864754115197524

>  <metric>  (1) 
shape

>  <metric_score>  (1) 
0.786

>  <template_pid>  (1) 
5NVH

>  <template_shape_score>  (1) 
0.786

>  <template_color_score>  (1) 
0.129

>  <template_combo_score>  (1) 
0.457

$$$$
5NVH_color_pose
     RDKit          3D

 23 26  0  0  0  0  0  0  0  0999 V2000
   12.1074    6.4572   13.4316 O   0  0  0  0  0  0  0  0  0  0  0  0
   12.0447    6.0446   14.6199 C   0  0  0  0  0  0  0  0  0  0  0  0
   11.9095    6.8969   15.6628 N   0  0  0  0  0  0  0  0  0  0  0  0
   11.8407    6.4786   16.9391 C   0  0  0  0  0  0  0  0  0  0  0  0
   11.6955    7.3804   18.0753 C   0  0  0  0  0  0  0  0  0  0  0  0
   11.6302    6.8662   19.3527 C   0  0  0  0  0  0  0  0  0  0  0  0
   11.4907    7.6890   20.4775 C   0  0  0  0  0  0  0  0  0  0  0  0
   11.4126    9.0560   20.3500 C   0  0  0  0  0  0  0  0  0  0  0  0
   11.2756    9.8678   21.5020 N   0  0  0  0  0  0  0  0  0  0  0  0
   11.3400    9.3069   22.8509 C   0  0  0  0  0  0  0  0  0  0  0  0
    9.8998    9.2586   23.3242 C   0  0  0  0  0  0  0  0  0  0  0  0
    9.1112   10.4330   22.7834 C   0  0  0  0  0  0  0  0  0  0  0  0
    9.9877   11.6305   22.4706 C   0  0  0  0  0  0  0  0  0  0  0  0
   11.0519   11.3093   21.4434 C   0  0  0  0  0  0  0  0  0  0  0  0
   11.4776    9.5709   19.0748 C   0  0  0  0  0  0  0  0  0  0  0  0
   11.6172    8.7498   17.9487 C   0  0  0  0  0  0  0  0  0  0  0  0
   11.9124    5.1542   17.1474 N   0  0  0  0  0  0  0  0  0  0  0  0
   12.0483    4.2502   16.1373 C   0  0  0  0  0  0  0  0  0  0  0  0
   12.1179    2.8981   16.4057 C   0  0  0  0  0  0  0  0  0  0  0  0
   12.2565    1.9826   15.3765 C   0  0  0  0  0  0  0  0  0  0  0  0
   12.3250    2.4471   14.0636 C   0  0  0  0  0  0  0  0  0  0  0  0
   12.2530    3.8102   13.8199 C   0  0  0  0  0  0  0  0  0  0  0  0
   12.1158    4.7053   14.8479 C   0  0  0  0  0  0  0  0  0  0  0  0
  1  2  2  0
  2  3  1  0
  3  4  1  0
  4  5  1  0
  5  6  2  0
  6  7  1  0
  7  8  2  0
  8  9  1  0
  9 10  1  0
 10 11  1  0
 11 12  1  0
 12 13  1  0
 13 14  1  0
  8 15  1  0
 15 16  2  0
  4 17  2  0
 17 18  1  0
 18 19  2  0
 19 20  1  0
 20 21  2  0
 21 22  1  0
 22 23  2  0
 23  2  1  0
 16  5  1  0
 23 18  1  0
 14  9  1  0
M  END
>  <shape_align_shape_tanimoto>  (2) 
0.77023090735275945

>  <shape_align_color_tanimoto>  (2) 
0.18279815067052591

>  <metric>  (2) 
color

>  <metric_score>  (2) 
0.183

>  <template_pid>  (2) 
5NVH

>  <template_shape_score>  (2) 
0.770

>  <template_color_score>  (2) 
0.183

>  <template_combo_score>  (2) 
0.477

$$$$
5NVH_combo_pose
     RDKit          3D

 23 26  0  0  0  0  0  0  0  0999 V2000
   12.1074    6.4572   13.4316 O   0  0  0  0  0  0  0  0  0  0  0  0
   12.0447    6.0446   14.6199 C   0  0  0  0  0  0  0  0  0  0  0  0
   11.9095    6.8969   15.6628 N   0  0  0  0  0  0  0  0  0  0  0  0
   11.8407    6.4786   16.9391 C   0  0  0  0  0  0  0  0  0  0  0  0
   11.6955    7.3804   18.0753 C   0  0  0  0  0  0  0  0  0  0  0  0
   11.6302    6.8662   19.3527 C   0  0  0  0  0  0  0  0  0  0  0  0
   11.4907    7.6890   20.4775 C   0  0  0  0  0  0  0  0  0  0  0  0
   11.4126    9.0560   20.3500 C   0  0  0  0  0  0  0  0  0  0  0  0
   11.2756    9.8678   21.5020 N   0  0  0  0  0  0  0  0  0  0  0  0
   11.3400    9.3069   22.8509 C   0  0  0  0  0  0  0  0  0  0  0  0
    9.8998    9.2586   23.3242 C   0  0  0  0  0  0  0  0  0  0  0  0
    9.1112   10.4330   22.7834 C   0  0  0  0  0  0  0  0  0  0  0  0
    9.9877   11.6305   22.4706 C   0  0  0  0  0  0  0  0  0  0  0  0
   11.0519   11.3093   21.4434 C   0  0  0  0  0  0  0  0  0  0  0  0
   11.4776    9.5709   19.0748 C   0  0  0  0  0  0  0  0  0  0  0  0
   11.6172    8.7498   17.9487 C   0  0  0  0  0  0  0  0  0  0  0  0
   11.9124    5.1542   17.1474 N   0  0  0  0  0  0  0  0  0  0  0  0
   12.0483    4.2502   16.1373 C   0  0  0  0  0  0  0  0  0  0  0  0
   12.1179    2.8981   16.4057 C   0  0  0  0  0  0  0  0  0  0  0  0
   12.2565    1.9826   15.3765 C   0  0  0  0  0  0  0  0  0  0  0  0
   12.3250    2.4471   14.0636 C   0  0  0  0  0  0  0  0  0  0  0  0
   12.2530    3.8102   13.8199 C   0  0  0  0  0  0  0  0  0  0  0  0
   12.1158    4.7053   14.8479 C   0  0  0  0  0  0  0  0  0  0  0  0
  1  2  2  0
  2  3  1  0
  3  4  1  0
  4  5  1  0
  5  6  2  0
  6  7  1  0
  7  8  2  0
  8  9  1  0
  9 10  1  0
 10 11  1  0
 11 12  1  0
 12 13  1  0
 13 14  1  0
  8 15  1  0
 15 16  2  0
  4 17  2  0
 17 18  1  0
 18 19  2  0
 19 20  1  0
 20 21  2  0
 21 22  1  0
 22 23  2  0
 23  2  1  0
 16  5  1  0
 23 18  1  0
 14  9  1  0
M  END
>  <shape_align_shape_tanimoto>  (3) 
0.77023090735275945

>  <shape_align_color_tanimoto>  (3) 
0.18279815067052591

>  <metric>  (3) 
combo

>  <metric_score>  (3) 
0.477

>  <template_pid>  (3) 
5NVH

>  <template_shape_score>  (3) 
0.770

>  <template_color_score>  (3) 
0.183

>  <template_combo_score>  (3) 
0.477

$$$$
