2O4H_shape_pose
     RDKit          3D

 13 12  0  0  0  0  0  0  0  0999 V2000
   20.3561  -47.9891  -10.3355 C   0  0  0  0  0  0  0  0  0  0  0  0
   20.0584  -46.2406  -10.5802 P   0  0  1  0  0  5  0  0  0  0  0  0
   19.3188  -46.1016  -11.9150 O   0  0  0  0  0  0  0  0  0  0  0  0
   18.9647  -45.6888   -9.4157 O   0  0  0  0  0  0  0  0  0  0  0  0
   21.4751  -45.2995  -10.6594 N   0  0  0  0  0  0  0  0  0  0  0  0
   21.6979  -44.4044   -9.5637 C   0  0  1  0  0  0  0  0  0  0  0  0
   21.8604  -45.0491   -8.2409 C   0  0  0  0  0  0  0  0  0  0  0  0
   22.0688  -44.0106   -7.2034 C   0  0  0  0  0  0  0  0  0  0  0  0
   21.1067  -43.3186   -6.7734 O   0  0  0  0  0  0  0  0  0  0  0  0
   23.3313  -43.7378   -6.6441 O   0  0  0  0  0  0  0  0  0  0  0  0
   22.9361  -43.6315   -9.8919 C   0  0  0  0  0  0  0  0  0  0  0  0
   23.5011  -43.9008  -10.9939 O   0  0  0  0  0  0  0  0  0  0  0  0
   23.4451  -42.6621   -9.0330 O   0  0  0  0  0  0  0  0  0  0  0  0
  2  1  1  1
  2  3  2  0
  2  4  1  0
  2  5  1  0
  5  6  1  0
  6  7  1  1
  7  8  1  0
  8  9  2  0
  8 10  1  0
  6 11  1  0
 11 12  2  0
 11 13  1  0
M  END
>  <shape_align_shape_tanimoto>  (1) 
0.40327320068709077

>  <shape_align_color_tanimoto>  (1) 
0.030633842418009857

>  <metric>  (1) 
shape

>  <metric_score>  (1) 
0.403

>  <template_pid>  (1) 
2O4H

>  <template_shape_score>  (1) 
0.403

>  <template_color_score>  (1) 
0.031

>  <template_combo_score>  (1) 
0.217

$$$$
2O4H_color_pose
     RDKit          3D

 13 12  0  0  0  0  0  0  0  0999 V2000
   21.1146  -46.7227   -8.8539 C   0  0  0  0  0  0  0  0  0  0  0  0
   20.3178  -46.5957  -10.4450 P   0  0  1  0  0  5  0  0  0  0  0  0
   18.9087  -46.0139  -10.1854 O   0  0  0  0  0  0  0  0  0  0  0  0
   21.0977  -45.3501  -11.3319 O   0  0  0  0  0  0  0  0  0  0  0  0
   20.1212  -47.9913  -11.3692 N   0  0  0  0  0  0  0  0  0  0  0  0
   21.1601  -48.9231  -11.5513 C   0  0  1  0  0  0  0  0  0  0  0  0
   21.4368  -49.7084  -10.3300 C   0  0  0  0  0  0  0  0  0  0  0  0
   22.5042  -50.7035  -10.3840 C   0  0  0  0  0  0  0  0  0  0  0  0
   22.6493  -51.4618   -9.3635 O   0  0  0  0  0  0  0  0  0  0  0  0
   23.3844  -50.9182  -11.4234 O   0  0  0  0  0  0  0  0  0  0  0  0
   20.8006  -49.7562  -12.7466 C   0  0  0  0  0  0  0  0  0  0  0  0
   21.5102  -50.6882  -13.1821 O   0  0  0  0  0  0  0  0  0  0  0  0
   19.6070  -49.5198  -13.4607 O   0  0  0  0  0  0  0  0  0  0  0  0
  2  1  1  1
  2  3  2  0
  2  4  1  0
  2  5  1  0
  5  6  1  0
  6  7  1  1
  7  8  1  0
  8  9  2  0
  8 10  1  0
  6 11  1  0
 11 12  2  0
 11 13  1  0
M  END
>  <shape_align_shape_tanimoto>  (2) 
0.36046972461543048

>  <shape_align_color_tanimoto>  (2) 
0.075544677754906198

>  <metric>  (2) 
color

>  <metric_score>  (2) 
0.076

>  <template_pid>  (2) 
2O4H

>  <template_shape_score>  (2) 
0.360

>  <template_color_score>  (2) 
0.076

>  <template_combo_score>  (2) 
0.218

$$$$
2O4H_combo_pose
     RDKit          3D

 13 12  0  0  0  0  0  0  0  0999 V2000
   24.2676  -44.5812   -7.9423 C   0  0  0  0  0  0  0  0  0  0  0  0
   22.9461  -43.4852   -7.5060 P   0  0  1  0  0  5  0  0  0  0  0  0
   22.7857  -43.4560   -5.9901 O   0  0  0  0  0  0  0  0  0  0  0  0
   23.4125  -41.8925   -7.9219 O   0  0  0  0  0  0  0  0  0  0  0  0
   21.4078  -43.7978   -8.1895 N   0  0  0  0  0  0  0  0  0  0  0  0
   21.4157  -44.9219   -9.1210 C   0  0  1  0  0  0  0  0  0  0  0  0
   20.0455  -45.1724   -9.6679 C   0  0  0  0  0  0  0  0  0  0  0  0
   19.9919  -46.3164  -10.5932 C   0  0  0  0  0  0  0  0  0  0  0  0
   20.9436  -47.0765  -10.8794 O   0  0  0  0  0  0  0  0  0  0  0  0
   18.7731  -46.5832  -11.2105 O   0  0  0  0  0  0  0  0  0  0  0  0
   22.4065  -44.5319  -10.1728 C   0  0  0  0  0  0  0  0  0  0  0  0
   22.7089  -45.2522  -11.1475 O   0  0  0  0  0  0  0  0  0  0  0  0
   23.0769  -43.2896  -10.1225 O   0  0  0  0  0  0  0  0  0  0  0  0
  2  1  1  1
  2  3  2  0
  2  4  1  0
  2  5  1  0
  5  6  1  0
  6  7  1  6
  7  8  1  0
  8  9  2  0
  8 10  1  0
  6 11  1  0
 11 12  2  0
 11 13  1  0
M  END
>  <shape_align_shape_tanimoto>  (3) 
0.39994831335815278

>  <shape_align_color_tanimoto>  (3) 
0.073423628372448022

>  <metric>  (3) 
combo

>  <metric_score>  (3) 
0.237

>  <template_pid>  (3) 
2O4H

>  <template_shape_score>  (3) 
0.400

>  <template_color_score>  (3) 
0.073

>  <template_combo_score>  (3) 
0.237

$$$$
