5UQ9_shape_pose
     RDKit          3D

 17 17  0  0  0  0  0  0  0  0999 V2000
   50.5934   46.7483   26.7449 C   0  0  0  0  0  0  0  0  0  0  0  0
   51.4452   47.9837   26.9144 C   0  0  0  0  0  0  0  0  0  0  0  0
   50.5572   49.0329   27.5768 C   0  0  0  0  0  0  0  0  0  0  0  0
   52.4893   47.7183   27.8024 O   0  0  0  0  0  0  0  0  0  0  0  0
   53.3600   46.9772   26.9599 C   0  0  2  0  0  0  0  0  0  0  0  0
   54.7026   47.0415   27.5885 C   0  0  0  0  0  0  0  0  0  0  0  0
   55.7066   46.3553   26.9239 O   0  0  0  0  0  0  0  0  0  0  0  0
   57.1383   46.5575   27.8013 P   0  0  0  0  0  0  0  0  0  0  0  0
   57.9058   47.7725   27.3318 O   0  0  0  0  0  0  0  0  0  0  0  0
   58.0829   45.1556   27.5719 O   0  0  0  0  0  0  0  0  0  0  0  0
   56.8584   46.7761   29.4555 O   0  0  0  0  0  0  0  0  0  0  0  0
   53.1913   47.6511   25.6442 C   0  0  2  0  0  0  0  0  0  0  0  0
   54.3239   48.4270   25.1520 C   0  0  0  0  0  0  0  0  0  0  0  0
   55.4806   48.0000   24.9258 O   0  0  0  0  0  0  0  0  0  0  0  0
   54.1202   49.8321   24.8903 N   0  0  0  0  0  0  0  0  0  0  0  0
   55.1222   50.6163   24.4326 O   0  0  0  0  0  0  0  0  0  0  0  0
   52.0273   48.4387   25.7643 O   0  0  0  0  0  0  0  0  0  0  0  0
  1  2  1  0
  2  3  1  0
  2  4  1  0
  4  5  1  0
  5  6  1  1
  6  7  1  0
  7  8  1  0
  8  9  2  0
  8 10  1  0
  8 11  1  0
  5 12  1  0
 12 13  1  1
 13 14  2  0
 13 15  1  0
 15 16  1  0
 12 17  1  0
 17  2  1  0
M  END
>  <shape_align_shape_tanimoto>  (1) 
0.72916194550101432

>  <shape_align_color_tanimoto>  (1) 
0.124471532588279

>  <metric>  (1) 
shape

>  <metric_score>  (1) 
0.729

>  <template_pid>  (1) 
5UQ9

>  <template_shape_score>  (1) 
0.729

>  <template_color_score>  (1) 
0.124

>  <template_combo_score>  (1) 
0.427

$$$$
5UQ9_color_pose
     RDKit          3D

 17 17  0  0  0  0  0  0  0  0999 V2000
   55.2404   47.1463   29.0179 C   0  0  0  0  0  0  0  0  0  0  0  0
   55.3471   46.8631   27.5296 C   0  0  0  0  0  0  0  0  0  0  0  0
   56.5857   45.9721   27.3799 C   0  0  0  0  0  0  0  0  0  0  0  0
   55.5962   48.0580   26.8507 O   0  0  0  0  0  0  0  0  0  0  0  0
   54.9050   47.9645   25.6481 C   0  0  2  0  0  0  0  0  0  0  0  0
   54.5610   49.2960   25.0885 C   0  0  0  0  0  0  0  0  0  0  0  0
   53.8707   49.2095   23.8876 O   0  0  0  0  0  0  0  0  0  0  0  0
   53.4575   50.6768   23.2129 P   0  0  0  0  0  0  0  0  0  0  0  0
   52.0945   51.1706   23.6379 O   0  0  0  0  0  0  0  0  0  0  0  0
   54.6377   51.8393   23.6069 O   0  0  0  0  0  0  0  0  0  0  0  0
   53.4981   50.5048   21.5114 O   0  0  0  0  0  0  0  0  0  0  0  0
   53.7799   47.0540   25.9307 C   0  0  2  0  0  0  0  0  0  0  0  0
   52.5189   47.7029   26.3833 C   0  0  0  0  0  0  0  0  0  0  0  0
   51.8752   48.4915   25.6105 O   0  0  0  0  0  0  0  0  0  0  0  0
   51.9605   47.4921   27.6766 N   0  0  0  0  0  0  0  0  0  0  0  0
   50.7990   48.0997   28.0720 O   0  0  0  0  0  0  0  0  0  0  0  0
   54.2358   46.2727   26.9868 O   0  0  0  0  0  0  0  0  0  0  0  0
  1  2  1  0
  2  3  1  0
  2  4  1  0
  4  5  1  0
  5  6  1  1
  6  7  1  0
  7  8  1  0
  8  9  2  0
  8 10  1  0
  8 11  1  0
  5 12  1  0
 12 13  1  1
 13 14  2  0
 13 15  1  0
 15 16  1  0
 12 17  1  0
 17  2  1  0
M  END
>  <shape_align_shape_tanimoto>  (2) 
0.66455304103857682

>  <shape_align_color_tanimoto>  (2) 
0.16103253236156084

>  <metric>  (2) 
color

>  <metric_score>  (2) 
0.161

>  <template_pid>  (2) 
5UQ9

>  <template_shape_score>  (2) 
0.665

>  <template_color_score>  (2) 
0.161

>  <template_combo_score>  (2) 
0.413

$$$$
5UQ9_combo_pose
     RDKit          3D

 17 17  0  0  0  0  0  0  0  0999 V2000
   50.7578   46.6828   26.8975 C   0  0  0  0  0  0  0  0  0  0  0  0
   51.4612   48.0003   26.8637 C   0  0  0  0  0  0  0  0  0  0  0  0
   50.4762   49.1023   27.1360 C   0  0  0  0  0  0  0  0  0  0  0  0
   52.5385   48.0698   27.7403 O   0  0  0  0  0  0  0  0  0  0  0  0
   53.3971   47.1151   27.1667 C   0  0  2  0  0  0  0  0  0  0  0  0
   54.7911   47.2114   27.7049 C   0  0  0  0  0  0  0  0  0  0  0  0
   55.5963   46.2718   27.1296 O   0  0  0  0  0  0  0  0  0  0  0  0
   57.1831   46.2716   27.6856 P   0  0  0  0  0  0  0  0  0  0  0  0
   58.0815   46.3458   26.4652 O   0  0  0  0  0  0  0  0  0  0  0  0
   57.5752   44.8151   28.4592 O   0  0  0  0  0  0  0  0  0  0  0  0
   57.5401   47.5986   28.6629 O   0  0  0  0  0  0  0  0  0  0  0  0
   53.2854   47.4419   25.7210 C   0  0  2  0  0  0  0  0  0  0  0  0
   54.3288   48.3727   25.2248 C   0  0  0  0  0  0  0  0  0  0  0  0
   55.5542   48.0801   25.1754 O   0  0  0  0  0  0  0  0  0  0  0  0
   54.0030   49.7009   24.7568 N   0  0  0  0  0  0  0  0  0  0  0  0
   54.9640   50.5337   24.3093 O   0  0  0  0  0  0  0  0  0  0  0  0
   52.0504   48.1133   25.6222 O   0  0  0  0  0  0  0  0  0  0  0  0
  1  2  1  0
  2  3  1  0
  2  4  1  0
  4  5  1  0
  5  6  1  1
  6  7  1  0
  7  8  1  0
  8  9  2  0
  8 10  1  0
  8 11  1  0
  5 12  1  0
 12 13  1  1
 13 14  2  0
 13 15  1  0
 15 16  1  0
 12 17  1  0
 17  2  1  0
M  END
>  <shape_align_shape_tanimoto>  (3) 
0.72873669597957524

>  <shape_align_color_tanimoto>  (3) 
0.13334236933439675

>  <metric>  (3) 
combo

>  <metric_score>  (3) 
0.431

>  <template_pid>  (3) 
5UQ9

>  <template_shape_score>  (3) 
0.729

>  <template_color_score>  (3) 
0.133

>  <template_combo_score>  (3) 
0.431

$$$$
