2IS0_shape_pose
     RDKit          3D

 39 41  0  0  0  0  0  0  0  0999 V2000
   22.1136    9.4555    5.9661 C   0  0  0  0  0  0  0  0  0  0  0  0
   22.3389    9.5849    7.4834 C   0  0  1  0  0  0  0  0  0  0  0  0
   22.6352   10.9788    7.6991 N   0  0  0  0  0  0  0  0  0  0  0  0
   23.8741   11.5054    8.0903 C   0  0  0  0  0  0  0  0  0  0  0  0
   24.8311   10.6989    8.2724 O   0  0  0  0  0  0  0  0  0  0  0  0
   24.1421   12.9273    8.3032 C   0  0  0  0  0  0  0  0  0  0  0  0
   25.4142   13.3689    8.5979 C   0  0  0  0  0  0  0  0  0  0  0  0
   25.6961   14.7302    8.8135 C   0  0  0  0  0  0  0  0  0  0  0  0
   27.0815   15.0412    9.0672 C   0  0  0  0  0  0  0  0  0  0  0  0
   27.9541   14.1145    9.0559 O   0  0  0  0  0  0  0  0  0  0  0  0
   27.5972   16.3153    9.3339 O   0  0  0  0  0  0  0  0  0  0  0  0
   29.0069   16.4006    9.5287 C   0  0  0  0  0  0  0  0  0  0  0  0
   29.4741   17.7808    9.8007 C   0  0  1  0  0  0  0  0  0  0  0  0
   30.9701   17.7005    9.8916 N   0  0  0  0  0  0  0  0  0  0  0  0
   29.1572   18.7179    8.6765 C   0  0  0  0  0  0  0  0  0  0  0  0
   27.7747   18.8368    8.5202 O   0  0  0  0  0  0  0  0  0  0  0  0
   29.0920   18.3550   11.1276 C   0  0  0  0  0  0  0  0  0  0  0  0
   27.6671   18.4728   11.4011 C   0  0  0  0  0  0  0  0  0  0  0  0
   26.9501   17.4426   11.9673 C   0  0  0  0  0  0  0  0  0  0  0  0
   25.5974   17.6553   12.2420 C   0  0  0  0  0  0  0  0  0  0  0  0
   25.0061   18.8821   11.9448 C   0  0  0  0  0  0  0  0  0  0  0  0
   25.7356   19.9088   11.3753 C   0  0  0  0  0  0  0  0  0  0  0  0
   27.0528   19.6843   11.1145 C   0  0  0  0  0  0  0  0  0  0  0  0
   24.6866   15.6644    8.7345 C   0  0  0  0  0  0  0  0  0  0  0  0
   23.4113   15.2387    8.4407 C   0  0  0  0  0  0  0  0  0  0  0  0
   22.2901   16.1034    8.3095 N   0  0  0  0  0  0  0  0  0  0  0  0
   22.0708   16.6470    6.9566 C   0  0  0  0  0  0  0  0  0  0  0  0
   21.2392   16.5086    9.6109 S   0  0  0  0  0  0  0  0  0  0  0  0
   22.0434   17.3462   10.9297 C   0  0  0  0  0  0  0  0  0  0  0  0
   20.1260   17.3644    9.0447 O   0  0  0  0  0  0  0  0  0  0  0  0
   20.5685   15.2396   10.1206 O   0  0  0  0  0  0  0  0  0  0  0  0
   23.1545   13.8840    8.2297 C   0  0  0  0  0  0  0  0  0  0  0  0
   21.1235    9.1012    8.1569 C   0  0  0  0  0  0  0  0  0  0  0  0
   19.9828    9.8998    8.0472 C   0  0  0  0  0  0  0  0  0  0  0  0
   18.7837    9.5208    8.6466 C   0  0  0  0  0  0  0  0  0  0  0  0
   18.7418    8.3345    9.3552 C   0  0  0  0  0  0  0  0  0  0  0  0
   17.5345    8.0181    9.9203 F   0  0  0  0  0  0  0  0  0  0  0  0
   19.8496    7.5167    9.4866 C   0  0  0  0  0  0  0  0  0  0  0  0
   21.0391    7.9254    8.8728 C   0  0  0  0  0  0  0  0  0  0  0  0
  2  1  1  6
  2  3  1  0
  3  4  1  0
  4  5  2  0
  4  6  1  0
  6  7  2  0
  7  8  1  0
  8  9  1  0
  9 10  2  0
  9 11  1  0
 11 12  1  0
 12 13  1  0
 13 14  1  1
 13 15  1  0
 15 16  1  0
 13 17  1  0
 17 18  1  0
 18 19  2  0
 19 20  1  0
 20 21  2  0
 21 22  1  0
 22 23  2  0
  8 24  2  0
 24 25  1  0
 25 26  1  0
 26 27  1  0
 26 28  1  0
 28 29  1  0
 28 30  2  0
 28 31  2  0
 25 32  2  0
  2 33  1  0
 33 34  2  0
 34 35  1  0
 35 36  2  0
 36 37  1  0
 36 38  1  0
 38 39  2  0
 32  6  1  0
 39 33  1  0
 23 18  1  0
M  CHG  1  14   1
M  END
>  <shape_align_shape_tanimoto>  (1) 
0.53261626862238287

>  <shape_align_color_tanimoto>  (1) 
0.025539805742287845

>  <metric>  (1) 
shape

>  <metric_score>  (1) 
0.533

>  <template_pid>  (1) 
2IS0

>  <template_shape_score>  (1) 
0.533

>  <template_color_score>  (1) 
0.026

>  <template_combo_score>  (1) 
0.279

$$$$
2IS0_color_pose
     RDKit          3D

 39 41  0  0  0  0  0  0  0  0999 V2000
   28.0239   17.9528   12.1130 C   0  0  0  0  0  0  0  0  0  0  0  0
   28.2764   17.4531   10.7063 C   0  0  1  0  0  0  0  0  0  0  0  0
   27.0472   16.9753   10.1361 N   0  0  0  0  0  0  0  0  0  0  0  0
   26.8671   15.6221    9.7901 C   0  0  0  0  0  0  0  0  0  0  0  0
   27.8250   14.8319    9.9961 O   0  0  0  0  0  0  0  0  0  0  0  0
   25.6428   15.0806    9.2087 C   0  0  0  0  0  0  0  0  0  0  0  0
   25.6146   13.7409    8.8902 C   0  0  0  0  0  0  0  0  0  0  0  0
   24.4553   13.2294    8.3419 C   0  0  0  0  0  0  0  0  0  0  0  0
   24.4274   11.8094    8.0005 C   0  0  0  0  0  0  0  0  0  0  0  0
   25.4519   11.0858    8.2051 O   0  0  0  0  0  0  0  0  0  0  0  0
   23.3265   11.1791    7.4518 O   0  0  0  0  0  0  0  0  0  0  0  0
   23.2905    9.8025    7.1139 C   0  0  0  0  0  0  0  0  0  0  0  0
   21.9112    9.5266    6.5530 C   0  0  1  0  0  0  0  0  0  0  0  0
   21.7669    8.1339    6.1630 N   0  0  0  0  0  0  0  0  0  0  0  0
   20.9329    9.8932    7.6483 C   0  0  0  0  0  0  0  0  0  0  0  0
   21.1365   11.2311    7.9645 O   0  0  0  0  0  0  0  0  0  0  0  0
   21.7198   10.3991    5.3261 C   0  0  0  0  0  0  0  0  0  0  0  0
   20.3637   10.1734    4.7182 C   0  0  0  0  0  0  0  0  0  0  0  0
   20.1742    9.2016    3.7575 C   0  0  0  0  0  0  0  0  0  0  0  0
   18.8996    9.0442    3.2342 C   0  0  0  0  0  0  0  0  0  0  0  0
   17.8468    9.8231    3.6479 C   0  0  0  0  0  0  0  0  0  0  0  0
   18.0269   10.8061    4.6162 C   0  0  0  0  0  0  0  0  0  0  0  0
   19.3066   10.9793    5.1558 C   0  0  0  0  0  0  0  0  0  0  0  0
   23.3314   13.9903    8.0991 C   0  0  0  0  0  0  0  0  0  0  0  0
   23.3940   15.3383    8.4319 C   0  0  0  0  0  0  0  0  0  0  0  0
   22.2674   16.1830    8.2086 N   0  0  0  0  0  0  0  0  0  0  0  0
   22.0599   16.9084    6.9697 C   0  0  0  0  0  0  0  0  0  0  0  0
   21.1342   16.2957    9.5331 S   0  0  0  0  0  0  0  0  0  0  0  0
   20.5091   14.6342    9.7855 C   0  0  0  0  0  0  0  0  0  0  0  0
   19.9997   17.1685    9.1454 O   0  0  0  0  0  0  0  0  0  0  0  0
   21.7785   16.8241   10.7594 O   0  0  0  0  0  0  0  0  0  0  0  0
   24.5405   15.8734    8.9810 C   0  0  0  0  0  0  0  0  0  0  0  0
   28.9372   18.4822    9.8651 C   0  0  0  0  0  0  0  0  0  0  0  0
   29.4629   19.6451   10.3918 C   0  0  0  0  0  0  0  0  0  0  0  0
   30.0614   20.5395    9.5107 C   0  0  0  0  0  0  0  0  0  0  0  0
   30.1362   20.2928    8.1642 C   0  0  0  0  0  0  0  0  0  0  0  0
   30.7117   21.1398    7.2722 F   0  0  0  0  0  0  0  0  0  0  0  0
   29.6035   19.1276    7.6760 C   0  0  0  0  0  0  0  0  0  0  0  0
   28.9968   18.1996    8.4965 C   0  0  0  0  0  0  0  0  0  0  0  0
  2  1  1  1
  2  3  1  0
  3  4  1  0
  4  5  2  0
  4  6  1  0
  6  7  2  0
  7  8  1  0
  8  9  1  0
  9 10  2  0
  9 11  1  0
 11 12  1  0
 12 13  1  0
 13 14  1  6
 13 15  1  0
 15 16  1  0
 13 17  1  0
 17 18  1  0
 18 19  2  0
 19 20  1  0
 20 21  2  0
 21 22  1  0
 22 23  2  0
  8 24  2  0
 24 25  1  0
 25 26  1  0
 26 27  1  0
 26 28  1  0
 28 29  1  0
 28 30  2  0
 28 31  2  0
 25 32  2  0
  2 33  1  0
 33 34  2  0
 34 35  1  0
 35 36  2  0
 36 37  1  0
 36 38  1  0
 38 39  2  0
 32  6  1  0
 39 33  1  0
 23 18  1  0
M  CHG  1  14   1
M  END
>  <shape_align_shape_tanimoto>  (2) 
0.47970978770250627

>  <shape_align_color_tanimoto>  (2) 
0.051938930973552087

>  <metric>  (2) 
color

>  <metric_score>  (2) 
0.052

>  <template_pid>  (2) 
2IS0

>  <template_shape_score>  (2) 
0.480

>  <template_color_score>  (2) 
0.052

>  <template_combo_score>  (2) 
0.266

$$$$
2IS0_combo_pose
     RDKit          3D

 39 41  0  0  0  0  0  0  0  0999 V2000
   22.1136    9.4555    5.9661 C   0  0  0  0  0  0  0  0  0  0  0  0
   22.3389    9.5849    7.4834 C   0  0  1  0  0  0  0  0  0  0  0  0
   22.6352   10.9788    7.6991 N   0  0  0  0  0  0  0  0  0  0  0  0
   23.8741   11.5054    8.0903 C   0  0  0  0  0  0  0  0  0  0  0  0
   24.8311   10.6989    8.2724 O   0  0  0  0  0  0  0  0  0  0  0  0
   24.1421   12.9273    8.3032 C   0  0  0  0  0  0  0  0  0  0  0  0
   25.4142   13.3689    8.5979 C   0  0  0  0  0  0  0  0  0  0  0  0
   25.6961   14.7302    8.8135 C   0  0  0  0  0  0  0  0  0  0  0  0
   27.0815   15.0412    9.0672 C   0  0  0  0  0  0  0  0  0  0  0  0
   27.9541   14.1145    9.0559 O   0  0  0  0  0  0  0  0  0  0  0  0
   27.5972   16.3153    9.3339 O   0  0  0  0  0  0  0  0  0  0  0  0
   29.0069   16.4006    9.5287 C   0  0  0  0  0  0  0  0  0  0  0  0
   29.4741   17.7808    9.8007 C   0  0  1  0  0  0  0  0  0  0  0  0
   30.9701   17.7005    9.8916 N   0  0  0  0  0  0  0  0  0  0  0  0
   29.1572   18.7179    8.6765 C   0  0  0  0  0  0  0  0  0  0  0  0
   27.7747   18.8368    8.5202 O   0  0  0  0  0  0  0  0  0  0  0  0
   29.0920   18.3550   11.1276 C   0  0  0  0  0  0  0  0  0  0  0  0
   27.6671   18.4728   11.4011 C   0  0  0  0  0  0  0  0  0  0  0  0
   26.9501   17.4426   11.9673 C   0  0  0  0  0  0  0  0  0  0  0  0
   25.5974   17.6553   12.2420 C   0  0  0  0  0  0  0  0  0  0  0  0
   25.0061   18.8821   11.9448 C   0  0  0  0  0  0  0  0  0  0  0  0
   25.7356   19.9088   11.3753 C   0  0  0  0  0  0  0  0  0  0  0  0
   27.0528   19.6843   11.1145 C   0  0  0  0  0  0  0  0  0  0  0  0
   24.6866   15.6644    8.7345 C   0  0  0  0  0  0  0  0  0  0  0  0
   23.4113   15.2387    8.4407 C   0  0  0  0  0  0  0  0  0  0  0  0
   22.2901   16.1034    8.3095 N   0  0  0  0  0  0  0  0  0  0  0  0
   22.0708   16.6470    6.9566 C   0  0  0  0  0  0  0  0  0  0  0  0
   21.2392   16.5086    9.6109 S   0  0  0  0  0  0  0  0  0  0  0  0
   22.0434   17.3462   10.9297 C   0  0  0  0  0  0  0  0  0  0  0  0
   20.1260   17.3644    9.0447 O   0  0  0  0  0  0  0  0  0  0  0  0
   20.5685   15.2396   10.1206 O   0  0  0  0  0  0  0  0  0  0  0  0
   23.1545   13.8840    8.2297 C   0  0  0  0  0  0  0  0  0  0  0  0
   21.1235    9.1012    8.1569 C   0  0  0  0  0  0  0  0  0  0  0  0
   19.9828    9.8998    8.0472 C   0  0  0  0  0  0  0  0  0  0  0  0
   18.7837    9.5208    8.6466 C   0  0  0  0  0  0  0  0  0  0  0  0
   18.7418    8.3345    9.3552 C   0  0  0  0  0  0  0  0  0  0  0  0
   17.5345    8.0181    9.9203 F   0  0  0  0  0  0  0  0  0  0  0  0
   19.8496    7.5167    9.4866 C   0  0  0  0  0  0  0  0  0  0  0  0
   21.0391    7.9254    8.8728 C   0  0  0  0  0  0  0  0  0  0  0  0
  2  1  1  6
  2  3  1  0
  3  4  1  0
  4  5  2  0
  4  6  1  0
  6  7  2  0
  7  8  1  0
  8  9  1  0
  9 10  2  0
  9 11  1  0
 11 12  1  0
 12 13  1  0
 13 14  1  1
 13 15  1  0
 15 16  1  0
 13 17  1  0
 17 18  1  0
 18 19  2  0
 19 20  1  0
 20 21  2  0
 21 22  1  0
 22 23  2  0
  8 24  2  0
 24 25  1  0
 25 26  1  0
 26 27  1  0
 26 28  1  0
 28 29  1  0
 28 30  2  0
 28 31  2  0
 25 32  2  0
  2 33  1  0
 33 34  2  0
 34 35  1  0
 35 36  2  0
 36 37  1  0
 36 38  1  0
 38 39  2  0
 32  6  1  0
 39 33  1  0
 23 18  1  0
M  CHG  1  14   1
M  END
>  <shape_align_shape_tanimoto>  (3) 
0.53261626862238287

>  <shape_align_color_tanimoto>  (3) 
0.025539805742287845

>  <metric>  (3) 
combo

>  <metric_score>  (3) 
0.279

>  <template_pid>  (3) 
2IS0

>  <template_shape_score>  (3) 
0.533

>  <template_color_score>  (3) 
0.026

>  <template_combo_score>  (3) 
0.279

$$$$
