1AZM_shape_pose
     RDKit          3D

 13 13  0  0  0  0  0  0  0  0999 V2000
   -5.5188    1.0889   16.2860 C   0  0  0  0  0  0  0  0  0  0  0  0
   -4.9734    2.1625   15.4242 C   0  0  0  0  0  0  0  0  0  0  0  0
   -3.7661    2.1988   15.0776 O   0  0  0  0  0  0  0  0  0  0  0  0
   -5.8238    3.1988   14.9602 N   0  0  0  0  0  0  0  0  0  0  0  0
   -5.2146    4.1944   14.1334 C   0  0  0  0  0  0  0  0  0  0  0  0
   -4.2052    4.5425   13.6315 N   0  0  0  0  0  0  0  0  0  0  0  0
   -4.0527    5.5827   12.8971 N   0  0  0  0  0  0  0  0  0  0  0  0
   -4.9155    6.3762   12.5984 C   0  0  0  0  0  0  0  0  0  0  0  0
   -5.2058    7.8411   11.7009 S   0  0  0  0  0  0  0  0  0  0  0  0
   -5.6561    7.5186   10.0541 N   0  0  0  0  0  0  0  0  0  0  0  0
   -6.3562    8.5977   12.3363 O   0  0  0  0  0  0  0  0  0  0  0  0
   -3.9656    8.6477   11.7106 O   0  0  0  0  0  0  0  0  0  0  0  0
   -6.3713    5.5722   13.5235 S   0  0  0  0  0  0  0  0  0  0  0  0
  1  2  1  0
  2  3  2  0
  2  4  1  0
  4  5  1  0
  5  6  2  0
  6  7  1  0
  7  8  2  0
  8  9  1  0
  9 10  1  0
  9 11  2  0
  9 12  2  0
  8 13  1  0
 13  5  1  0
M  END
>  <shape_align_shape_tanimoto>  (1) 
0.69954681342271052

>  <shape_align_color_tanimoto>  (1) 
0.14938676367409667

>  <metric>  (1) 
shape

>  <metric_score>  (1) 
0.700

>  <template_pid>  (1) 
1AZM

>  <template_shape_score>  (1) 
0.700

>  <template_color_score>  (1) 
0.149

>  <template_combo_score>  (1) 
0.424

$$$$
1AZM_color_pose
     RDKit          3D

 13 13  0  0  0  0  0  0  0  0999 V2000
   -5.6699    8.4626   11.2661 C   0  0  0  0  0  0  0  0  0  0  0  0
   -5.3966    7.1053   11.8106 C   0  0  0  0  0  0  0  0  0  0  0  0
   -5.5974    6.0815   11.0916 O   0  0  0  0  0  0  0  0  0  0  0  0
   -4.9146    6.8889   13.1148 N   0  0  0  0  0  0  0  0  0  0  0  0
   -4.6645    5.5249   13.5942 C   0  0  0  0  0  0  0  0  0  0  0  0
   -3.7740    4.7169   13.6281 N   0  0  0  0  0  0  0  0  0  0  0  0
   -3.8955    3.5422   14.1544 N   0  0  0  0  0  0  0  0  0  0  0  0
   -4.8738    3.1047   14.6647 C   0  0  0  0  0  0  0  0  0  0  0  0
   -5.5434    1.6965   15.4764 S   0  0  0  0  0  0  0  0  0  0  0  0
   -6.2496    0.5837   14.3666 N   0  0  0  0  0  0  0  0  0  0  0  0
   -6.5408    2.1124   16.5248 O   0  0  0  0  0  0  0  0  0  0  0  0
   -4.4441    0.9751   16.2000 O   0  0  0  0  0  0  0  0  0  0  0  0
   -6.0238    4.5979   14.4350 S   0  0  0  0  0  0  0  0  0  0  0  0
  1  2  1  0
  2  3  2  0
  2  4  1  0
  4  5  1  0
  5  6  2  0
  6  7  1  0
  7  8  2  0
  8  9  1  0
  9 10  1  0
  9 11  2  0
  9 12  2  0
  8 13  1  0
 13  5  1  0
M  END
>  <shape_align_shape_tanimoto>  (2) 
0.63029611915521511

>  <shape_align_color_tanimoto>  (2) 
0.28681056344173228

>  <metric>  (2) 
color

>  <metric_score>  (2) 
0.287

>  <template_pid>  (2) 
1AZM

>  <template_shape_score>  (2) 
0.630

>  <template_color_score>  (2) 
0.287

>  <template_combo_score>  (2) 
0.459

$$$$
1AZM_combo_pose
     RDKit          3D

 13 13  0  0  0  0  0  0  0  0999 V2000
   -5.3729    8.3554   11.4524 C   0  0  0  0  0  0  0  0  0  0  0  0
   -5.3692    6.9422   11.9331 C   0  0  0  0  0  0  0  0  0  0  0  0
   -5.8589    6.0720   11.1565 O   0  0  0  0  0  0  0  0  0  0  0  0
   -4.8316    6.6438   13.2046 N   0  0  0  0  0  0  0  0  0  0  0  0
   -4.7812    5.3333   13.7527 C   0  0  0  0  0  0  0  0  0  0  0  0
   -3.7308    4.4023   13.6082 N   0  0  0  0  0  0  0  0  0  0  0  0
   -3.9557    3.3021   14.2089 N   0  0  0  0  0  0  0  0  0  0  0  0
   -4.9142    2.9569   14.8645 C   0  0  0  0  0  0  0  0  0  0  0  0
   -5.4371    1.5520   15.7546 S   0  0  0  0  0  0  0  0  0  0  0  0
   -4.9554    1.5737   17.3945 N   0  0  0  0  0  0  0  0  0  0  0  0
   -4.8326    0.3727   15.0872 O   0  0  0  0  0  0  0  0  0  0  0  0
   -6.9345    1.4007   15.6119 O   0  0  0  0  0  0  0  0  0  0  0  0
   -5.9849    4.4954   14.7532 S   0  0  0  0  0  0  0  0  0  0  0  0
  1  2  1  0
  2  3  2  0
  2  4  1  0
  4  5  1  0
  5  6  2  0
  6  7  1  0
  7  8  2  0
  8  9  1  0
  9 10  1  0
  9 11  2  0
  9 12  2  0
  8 13  1  0
 13  5  1  0
M  END
>  <shape_align_shape_tanimoto>  (3) 
0.65984401874140819

>  <shape_align_color_tanimoto>  (3) 
0.28131188915590849

>  <metric>  (3) 
combo

>  <metric_score>  (3) 
0.471

>  <template_pid>  (3) 
1AZM

>  <template_shape_score>  (3) 
0.660

>  <template_color_score>  (3) 
0.281

>  <template_combo_score>  (3) 
0.471

$$$$
