1XOQ_shape_pose
     RDKit          3D

 26 28  0  0  0  0  0  0  0  0999 V2000
   20.9138   -2.9624   29.2639 O   0  0  0  0  0  0  0  0  0  0  0  0
   21.1285   -3.9782   29.9730 C   0  0  0  0  0  0  0  0  0  0  0  0
   20.9670   -5.2418   29.3677 N   0  0  0  0  0  0  0  0  0  0  0  0
   20.5777   -5.4210   28.0099 C   0  0  0  0  0  0  0  0  0  0  0  0
   21.4889   -5.5034   26.9768 C   0  0  0  0  0  0  0  0  0  0  0  0
   23.2055   -5.3859   27.3194 Cl  0  0  0  0  0  0  0  0  0  0  0  0
   20.9921   -5.6776   25.7021 C   0  0  0  0  0  0  0  0  0  0  0  0
   19.6687   -5.7669   25.4486 N   0  0  0  0  0  0  0  0  0  0  0  0
   18.7517   -5.6883   26.4519 C   0  0  0  0  0  0  0  0  0  0  0  0
   19.2182   -5.5135   27.7434 C   0  0  0  0  0  0  0  0  0  0  0  0
   18.0550   -5.4087   29.0581 Cl  0  0  0  0  0  0  0  0  0  0  0  0
   21.5265   -3.7782   31.3620 C   0  0  0  0  0  0  0  0  0  0  0  0
   21.6402   -2.4759   31.8013 C   0  0  0  0  0  0  0  0  0  0  0  0
   22.0190   -2.2622   33.1235 C   0  0  0  0  0  0  0  0  0  0  0  0
   22.2808   -3.2973   33.9960 C   0  0  0  0  0  0  0  0  0  0  0  0
   22.6543   -3.0986   35.2994 O   0  0  0  0  0  0  0  0  0  0  0  0
   22.8351   -1.8961   35.9694 C   0  0  0  0  0  0  0  0  0  0  0  0
   21.9804   -1.7950   37.0726 F   0  0  0  0  0  0  0  0  0  0  0  0
   24.1638   -1.8301   36.3982 F   0  0  0  0  0  0  0  0  0  0  0  0
   22.1638   -4.6179   33.5434 C   0  0  0  0  0  0  0  0  0  0  0  0
   22.4352   -5.6282   34.4419 O   0  0  0  0  0  0  0  0  0  0  0  0
   22.3747   -6.9907   34.0900 C   0  0  0  0  0  0  0  0  0  0  0  0
   23.3647   -7.3856   33.0178 C   0  0  0  0  0  0  0  0  0  0  0  0
   23.4445   -8.7816   32.5051 C   0  0  0  0  0  0  0  0  0  0  0  0
   24.4402   -8.3719   33.5078 C   0  0  0  0  0  0  0  0  0  0  0  0
   21.7878   -4.8142   32.2336 C   0  0  0  0  0  0  0  0  0  0  0  0
  1  2  2  0
  2  3  1  0
  3  4  1  0
  4  5  2  0
  5  6  1  0
  5  7  1  0
  7  8  2  0
  8  9  1  0
  9 10  2  0
 10 11  1  0
  2 12  1  0
 12 13  2  0
 13 14  1  0
 14 15  2  0
 15 16  1  0
 16 17  1  0
 17 18  1  0
 17 19  1  0
 15 20  1  0
 20 21  1  0
 21 22  1  0
 22 23  1  0
 23 24  1  0
 24 25  1  0
 20 26  2  0
 10  4  1  0
 26 12  1  0
 25 23  1  0
M  END
>  <shape_align_shape_tanimoto>  (1) 
0.66896170582439585

>  <shape_align_color_tanimoto>  (1) 
0.026620322066312957

>  <metric>  (1) 
shape

>  <metric_score>  (1) 
0.669

>  <template_pid>  (1) 
1XOQ

>  <template_shape_score>  (1) 
0.669

>  <template_color_score>  (1) 
0.027

>  <template_combo_score>  (1) 
0.348

$$$$
1XOQ_color_pose
     RDKit          3D

 26 28  0  0  0  0  0  0  0  0999 V2000
   21.3617   -1.1383   33.6301 O   0  0  0  0  0  0  0  0  0  0  0  0
   22.0126   -1.9072   34.4089 C   0  0  0  0  0  0  0  0  0  0  0  0
   22.4430   -1.3357   35.6335 N   0  0  0  0  0  0  0  0  0  0  0  0
   22.0903    0.0439   35.8442 C   0  0  0  0  0  0  0  0  0  0  0  0
   20.8919    0.3488   36.4669 C   0  0  0  0  0  0  0  0  0  0  0  0
   19.8105   -0.9261   36.9958 Cl  0  0  0  0  0  0  0  0  0  0  0  0
   20.5389    1.6661   36.6765 C   0  0  0  0  0  0  0  0  0  0  0  0
   21.3421    2.6694   36.2849 N   0  0  0  0  0  0  0  0  0  0  0  0
   22.5305    2.4075   35.6682 C   0  0  0  0  0  0  0  0  0  0  0  0
   22.8927    1.0823   35.4538 C   0  0  0  0  0  0  0  0  0  0  0  0
   24.4001    0.7370   34.6713 Cl  0  0  0  0  0  0  0  0  0  0  0  0
   22.2994   -3.2979   34.0609 C   0  0  0  0  0  0  0  0  0  0  0  0
   22.9916   -4.1594   34.8602 C   0  0  0  0  0  0  0  0  0  0  0  0
   23.2241   -5.4767   34.4535 C   0  0  0  0  0  0  0  0  0  0  0  0
   22.7643   -5.9392   33.2429 C   0  0  0  0  0  0  0  0  0  0  0  0
   22.9506   -7.2206   32.7686 O   0  0  0  0  0  0  0  0  0  0  0  0
   23.6307   -8.2474   33.4353 C   0  0  0  0  0  0  0  0  0  0  0  0
   24.6911   -8.6275   32.6013 F   0  0  0  0  0  0  0  0  0  0  0  0
   22.7993   -9.3538   33.4729 F   0  0  0  0  0  0  0  0  0  0  0  0
   22.0578   -5.0665   32.4225 C   0  0  0  0  0  0  0  0  0  0  0  0
   21.5705   -5.5014   31.1758 O   0  0  0  0  0  0  0  0  0  0  0  0
   20.8629   -4.5387   30.4127 C   0  0  0  0  0  0  0  0  0  0  0  0
   20.4273   -5.1913   29.1250 C   0  0  0  0  0  0  0  0  0  0  0  0
   19.6592   -4.4243   28.1138 C   0  0  0  0  0  0  0  0  0  0  0  0
   21.1423   -4.6842   27.8941 C   0  0  0  0  0  0  0  0  0  0  0  0
   21.8399   -3.7650   32.8477 C   0  0  0  0  0  0  0  0  0  0  0  0
  1  2  2  0
  2  3  1  0
  3  4  1  0
  4  5  2  0
  5  6  1  0
  5  7  1  0
  7  8  2  0
  8  9  1  0
  9 10  2  0
 10 11  1  0
  2 12  1  0
 12 13  2  0
 13 14  1  0
 14 15  2  0
 15 16  1  0
 16 17  1  0
 17 18  1  0
 17 19  1  0
 15 20  1  0
 20 21  1  0
 21 22  1  0
 22 23  1  0
 23 24  1  0
 24 25  1  0
 20 26  2  0
 10  4  1  0
 26 12  1  0
 25 23  1  0
M  END
>  <shape_align_shape_tanimoto>  (2) 
0.48139605571721911

>  <shape_align_color_tanimoto>  (2) 
0.079810703368159305

>  <metric>  (2) 
color

>  <metric_score>  (2) 
0.080

>  <template_pid>  (2) 
1XOQ

>  <template_shape_score>  (2) 
0.481

>  <template_color_score>  (2) 
0.080

>  <template_combo_score>  (2) 
0.281

$$$$
1XOQ_combo_pose
     RDKit          3D

 26 28  0  0  0  0  0  0  0  0999 V2000
   20.9991   -3.0503   29.2029 O   0  0  0  0  0  0  0  0  0  0  0  0
   21.0709   -4.0831   29.9172 C   0  0  0  0  0  0  0  0  0  0  0  0
   20.7354   -5.3202   29.3267 N   0  0  0  0  0  0  0  0  0  0  0  0
   20.3207   -5.4670   27.9708 C   0  0  0  0  0  0  0  0  0  0  0  0
   21.2538   -5.6886   26.9780 C   0  0  0  0  0  0  0  0  0  0  0  0
   22.9691   -5.7974   27.3407 Cl  0  0  0  0  0  0  0  0  0  0  0  0
   20.7760   -5.8206   25.6878 C   0  0  0  0  0  0  0  0  0  0  0  0
   19.4619   -5.7397   25.3923 N   0  0  0  0  0  0  0  0  0  0  0  0
   18.5683   -5.5219   26.3835 C   0  0  0  0  0  0  0  0  0  0  0  0
   18.9739   -5.3819   27.6839 C   0  0  0  0  0  0  0  0  0  0  0  0
   17.8238   -5.1019   28.9577 Cl  0  0  0  0  0  0  0  0  0  0  0  0
   21.4955   -3.9273   31.3030 C   0  0  0  0  0  0  0  0  0  0  0  0
   21.7941   -2.6590   31.7512 C   0  0  0  0  0  0  0  0  0  0  0  0
   22.1977   -2.5014   33.0646 C   0  0  0  0  0  0  0  0  0  0  0  0
   22.3173   -3.5498   33.9508 C   0  0  0  0  0  0  0  0  0  0  0  0
   22.7172   -3.4190   35.2632 O   0  0  0  0  0  0  0  0  0  0  0  0
   23.0568   -2.2071   35.8779 C   0  0  0  0  0  0  0  0  0  0  0  0
   22.1513   -1.9977   36.9308 F   0  0  0  0  0  0  0  0  0  0  0  0
   24.2967   -2.3176   36.5263 F   0  0  0  0  0  0  0  0  0  0  0  0
   22.0133   -4.8467   33.4967 C   0  0  0  0  0  0  0  0  0  0  0  0
   22.1419   -5.8566   34.3962 O   0  0  0  0  0  0  0  0  0  0  0  0
   21.9644   -7.2105   34.2991 C   0  0  0  0  0  0  0  0  0  0  0  0
   22.8898   -8.0026   33.4204 C   0  0  0  0  0  0  0  0  0  0  0  0
   24.3736   -8.0605   33.7283 C   0  0  0  0  0  0  0  0  0  0  0  0
   23.8411   -7.3078   32.5576 C   0  0  0  0  0  0  0  0  0  0  0  0
   21.6133   -4.9745   32.1826 C   0  0  0  0  0  0  0  0  0  0  0  0
  1  2  2  0
  2  3  1  0
  3  4  1  0
  4  5  2  0
  5  6  1  0
  5  7  1  0
  7  8  2  0
  8  9  1  0
  9 10  2  0
 10 11  1  0
  2 12  1  0
 12 13  2  0
 13 14  1  0
 14 15  2  0
 15 16  1  0
 16 17  1  0
 17 18  1  0
 17 19  1  0
 15 20  1  0
 20 21  1  0
 21 22  1  0
 22 23  1  0
 23 24  1  0
 24 25  1  0
 20 26  2  0
 10  4  1  0
 26 12  1  0
 25 23  1  0
M  END
>  <shape_align_shape_tanimoto>  (3) 
0.66245970949455169

>  <shape_align_color_tanimoto>  (3) 
0.042620248115327185

>  <metric>  (3) 
combo

>  <metric_score>  (3) 
0.353

>  <template_pid>  (3) 
1XOQ

>  <template_shape_score>  (3) 
0.662

>  <template_color_score>  (3) 
0.043

>  <template_combo_score>  (3) 
0.353

$$$$
