1Z2B_shape_pose
     RDKit          3D

 59 67  0  0  0  0  0  0  0  0999 V2000
  -23.3613  -44.5033   30.8860 C   0  0  0  0  0  0  0  0  0  0  0  0
  -24.5505  -45.4296   30.7459 C   0  0  0  0  0  0  0  0  0  0  0  0
  -24.2536  -46.6592   31.6093 C   0  0  2  0  0  0  0  0  0  0  0  0
  -24.1013  -46.1723   32.9087 O   0  0  0  0  0  0  0  0  0  0  0  0
  -22.9229  -47.1814   31.1586 C   0  0  0  0  0  0  0  0  0  0  0  0
  -23.0876  -48.3749   30.2766 C   0  0  2  0  0  0  0  0  0  0  0  0
  -24.0414  -49.2109   31.0400 C   0  0  0  0  0  0  0  0  0  0  0  0
  -25.3026  -48.6115   30.6453 N   0  0  1  0  0  0  0  0  0  0  0  0
  -26.2106  -49.5904   30.3850 C   0  0  0  0  0  0  0  0  0  0  0  0
  -25.5190  -50.7284   29.6441 C   0  0  0  0  0  0  0  0  0  0  0  0
  -24.8281  -50.3567   28.4159 C   0  0  0  0  0  0  0  0  0  0  0  0
  -23.4983  -50.2146   28.1660 C   0  0  0  0  0  0  0  0  0  0  0  0
  -23.3530  -49.8439   26.8423 N   0  0  0  0  0  0  0  0  0  0  0  0
  -24.5293  -49.7490   26.2576 C   0  0  0  0  0  0  0  0  0  0  0  0
  -24.9047  -49.4171   24.9731 C   0  0  0  0  0  0  0  0  0  0  0  0
  -26.2084  -49.3836   24.5905 C   0  0  0  0  0  0  0  0  0  0  0  0
  -27.1747  -49.6891   25.5112 C   0  0  0  0  0  0  0  0  0  0  0  0
  -26.7943  -50.0209   26.7965 C   0  0  0  0  0  0  0  0  0  0  0  0
  -25.4691  -50.0528   27.1774 C   0  0  0  0  0  0  0  0  0  0  0  0
  -22.3827  -50.3981   29.1206 C   0  0  1  0  0  0  0  0  0  0  0  0
  -22.3418  -51.5964   29.9329 C   0  0  0  0  0  0  0  0  0  0  0  0
  -22.9878  -52.6529   29.8133 O   0  0  0  0  0  0  0  0  0  0  0  0
  -21.4382  -51.5799   31.0299 O   0  0  0  0  0  0  0  0  0  0  0  0
  -21.3979  -52.7622   31.8319 C   0  0  0  0  0  0  0  0  0  0  0  0
  -21.1110  -50.7304   28.2605 C   0  0  0  0  0  0  0  0  0  0  0  0
  -19.9769  -50.0017   28.3392 C   0  0  0  0  0  0  0  0  0  0  0  0
  -18.8522  -50.3596   27.5811 C   0  0  0  0  0  0  0  0  0  0  0  0
  -18.9299  -51.4496   26.7717 C   0  0  0  0  0  0  0  0  0  0  0  0
  -20.0906  -52.1943   26.6930 C   0  0  0  0  0  0  0  0  0  0  0  0
  -21.1922  -51.8347   27.4418 C   0  0  0  0  0  0  0  0  0  0  0  0
  -22.3218  -52.6256   27.3121 O   0  0  0  0  0  0  0  0  0  0  0  0
  -22.4458  -53.7514   26.4949 C   0  0  0  0  0  0  0  0  0  0  0  0
  -17.6557  -51.6062   26.0969 N   0  0  0  0  0  0  0  0  0  0  0  0
  -17.5798  -52.3693   24.8599 C   0  0  0  0  0  0  0  0  0  0  0  0
  -16.7005  -50.9125   26.8736 C   0  0  1  0  0  0  0  0  0  0  0  0
  -15.4215  -50.4992   26.2835 C   0  0  1  0  0  0  0  0  0  0  0  0
  -14.6785  -49.9555   27.3867 O   0  0  0  0  0  0  0  0  0  0  0  0
  -14.5706  -51.6229   25.8764 C   0  0  0  0  0  0  0  0  0  0  0  0
  -13.5695  -51.8802   26.6420 O   0  0  0  0  0  0  0  0  0  0  0  0
  -14.6994  -52.4352   24.7834 O   0  0  0  0  0  0  0  0  0  0  0  0
  -13.7790  -53.4831   24.5327 C   0  0  0  0  0  0  0  0  0  0  0  0
  -15.5036  -49.3717   25.2853 C   0  0  2  0  0  0  0  0  0  0  0  0
  -14.3434  -48.5518   25.4247 O   0  0  0  0  0  0  0  0  0  0  0  0
  -13.3973  -48.5274   24.4218 C   0  0  0  0  0  0  0  0  0  0  0  0
  -12.2087  -47.6315   24.6530 C   0  0  0  0  0  0  0  0  0  0  0  0
  -13.4579  -49.1847   23.3562 O   0  0  0  0  0  0  0  0  0  0  0  0
  -16.7086  -48.5167   25.3795 C   0  0  2  0  0  0  0  0  0  0  0  0
  -17.7232  -48.7294   24.2378 C   0  0  0  0  0  0  0  0  0  0  0  0
  -17.1144  -48.4337   22.9162 C   0  0  0  0  0  0  0  0  0  0  0  0
  -16.2890  -47.1153   25.0768 C   0  0  0  0  0  0  0  0  0  0  0  0
  -16.5226  -46.0595   25.8222 C   0  0  0  0  0  0  0  0  0  0  0  0
  -17.2856  -46.2475   27.1167 C   0  0  0  0  0  0  0  0  0  0  0  0
  -16.7734  -47.5354   27.5722 N   0  0  1  0  0  0  0  0  0  0  0  0
  -17.1747  -47.8842   28.8823 C   0  0  0  0  0  0  0  0  0  0  0  0
  -17.0453  -49.3845   28.8736 C   0  0  0  0  0  0  0  0  0  0  0  0
  -17.4716  -49.7557   27.4750 C   0  0  2  0  0  0  0  0  0  0  0  0
  -17.4001  -48.5090   26.7031 C   0  0  2  0  0  0  0  0  0  0  0  0
  -21.9642  -49.0906   29.7482 C   0  0  0  0  0  0  0  0  0  0  0  0
  -25.4512  -47.5580   31.5889 C   0  0  0  0  0  0  0  0  0  0  0  0
  1  2  1  0
  2  3  1  0
  3  4  1  1
  3  5  1  0
  6  5  1  1
  6  7  1  0
  7  8  1  0
  8  9  1  1
  9 10  1  0
 10 11  1  0
 11 12  2  0
 12 13  1  0
 13 14  1  0
 14 15  2  0
 15 16  1  0
 16 17  2  0
 17 18  1  0
 18 19  2  0
 12 20  1  0
 20 21  1  1
 21 22  2  0
 21 23  1  0
 23 24  1  0
 20 25  1  0
 25 26  2  0
 26 27  1  0
 27 28  2  0
 28 29  1  0
 29 30  2  0
 30 31  1  0
 31 32  1  0
 28 33  1  0
 33 34  1  0
 35 33  1  6
 35 36  1  0
 36 37  1  1
 36 38  1  0
 38 39  2  0
 38 40  1  0
 40 41  1  0
 36 42  1  0
 42 43  1  1
 43 44  1  0
 44 45  1  0
 44 46  2  0
 42 47  1  0
 47 48  1  6
 48 49  1  0
 47 50  1  0
 50 51  2  0
 51 52  1  0
 53 52  1  6
 53 54  1  0
 54 55  1  0
 56 55  1  1
 56 57  1  0
 20 58  1  0
  8 59  1  0
 59  3  1  0
 58  6  1  0
 19 11  1  0
 30 25  1  0
 56 35  1  0
 19 14  1  0
 56 27  1  0
 57 47  1  0
 57 53  1  1
M  CHG  2   8   1  53   1
M  END
>  <shape_align_shape_tanimoto>  (1) 
0.4814044842333306

>  <shape_align_color_tanimoto>  (1) 
0.042166186394192874

>  <metric>  (1) 
shape

>  <metric_score>  (1) 
0.481

>  <template_pid>  (1) 
1Z2B

>  <template_shape_score>  (1) 
0.481

>  <template_color_score>  (1) 
0.042

>  <template_combo_score>  (1) 
0.262

$$$$
1Z2B_color_pose
     RDKit          3D

 59 67  0  0  0  0  0  0  0  0999 V2000
  -16.3236  -45.3378   28.5362 C   0  0  0  0  0  0  0  0  0  0  0  0
  -15.6684  -46.6141   28.0844 C   0  0  0  0  0  0  0  0  0  0  0  0
  -16.3211  -47.1486   26.8208 C   0  0  2  0  0  0  0  0  0  0  0  0
  -16.1578  -46.1348   25.8485 O   0  0  0  0  0  0  0  0  0  0  0  0
  -17.7839  -47.3664   27.1162 C   0  0  0  0  0  0  0  0  0  0  0  0
  -18.0796  -48.7758   27.4077 C   0  0  2  0  0  0  0  0  0  0  0  0
  -17.3606  -49.3952   26.2351 C   0  0  0  0  0  0  0  0  0  0  0  0
  -16.0560  -49.4938   26.8221 N   0  0  1  0  0  0  0  0  0  0  0  0
  -15.6991  -50.7898   26.9337 C   0  0  0  0  0  0  0  0  0  0  0  0
  -16.7599  -51.6003   27.6185 C   0  0  0  0  0  0  0  0  0  0  0  0
  -17.8804  -52.1934   26.9033 C   0  0  0  0  0  0  0  0  0  0  0  0
  -19.1208  -51.7997   26.6176 C   0  0  0  0  0  0  0  0  0  0  0  0
  -19.8000  -52.8118   25.9217 N   0  0  0  0  0  0  0  0  0  0  0  0
  -18.9904  -53.8385   25.7674 C   0  0  0  0  0  0  0  0  0  0  0  0
  -19.1966  -55.0471   25.1571 C   0  0  0  0  0  0  0  0  0  0  0  0
  -18.1664  -55.9572   25.1342 C   0  0  0  0  0  0  0  0  0  0  0  0
  -16.9380  -55.7009   25.7000 C   0  0  0  0  0  0  0  0  0  0  0  0
  -16.7944  -54.4545   26.3040 C   0  0  0  0  0  0  0  0  0  0  0  0
  -17.8039  -53.5234   26.3440 C   0  0  0  0  0  0  0  0  0  0  0  0
  -19.8283  -50.5224   26.8798 C   0  0  1  0  0  0  0  0  0  0  0  0
  -20.3618  -49.9383   25.5810 C   0  0  0  0  0  0  0  0  0  0  0  0
  -20.1155  -48.7571   25.2423 O   0  0  0  0  0  0  0  0  0  0  0  0
  -21.1398  -50.6871   24.7150 O   0  0  0  0  0  0  0  0  0  0  0  0
  -21.6242  -50.1114   23.4997 C   0  0  0  0  0  0  0  0  0  0  0  0
  -21.0827  -50.8307   27.6475 C   0  0  0  0  0  0  0  0  0  0  0  0
  -22.3362  -50.5204   27.2686 C   0  0  0  0  0  0  0  0  0  0  0  0
  -23.4344  -50.8222   28.0434 C   0  0  0  0  0  0  0  0  0  0  0  0
  -23.2764  -51.4637   29.2533 C   0  0  0  0  0  0  0  0  0  0  0  0
  -22.0080  -51.7969   29.6752 C   0  0  0  0  0  0  0  0  0  0  0  0
  -20.9205  -51.4819   28.8768 C   0  0  0  0  0  0  0  0  0  0  0  0
  -19.6740  -51.8448   29.3589 O   0  0  0  0  0  0  0  0  0  0  0  0
  -19.4325  -52.4889   30.5600 C   0  0  0  0  0  0  0  0  0  0  0  0
  -24.5637  -51.6740   29.8694 N   0  0  0  0  0  0  0  0  0  0  0  0
  -24.8638  -52.6455   30.9314 C   0  0  0  0  0  0  0  0  0  0  0  0
  -25.4859  -50.7544   29.2349 C   0  0  1  0  0  0  0  0  0  0  0  0
  -25.6557  -49.5143   30.0263 C   0  0  1  0  0  0  0  0  0  0  0  0
  -26.9791  -49.0531   30.0447 O   0  0  0  0  0  0  0  0  0  0  0  0
  -25.2899  -49.7534   31.4655 C   0  0  0  0  0  0  0  0  0  0  0  0
  -24.1343  -50.1459   31.7986 O   0  0  0  0  0  0  0  0  0  0  0  0
  -26.1919  -49.5587   32.5009 O   0  0  0  0  0  0  0  0  0  0  0  0
  -25.8835  -49.7734   33.8656 C   0  0  0  0  0  0  0  0  0  0  0  0
  -24.8124  -48.3916   29.5289 C   0  0  2  0  0  0  0  0  0  0  0  0
  -25.0101  -47.2057   30.2712 O   0  0  0  0  0  0  0  0  0  0  0  0
  -23.9826  -46.6123   30.9897 C   0  0  0  0  0  0  0  0  0  0  0  0
  -24.3384  -45.3566   31.7305 C   0  0  0  0  0  0  0  0  0  0  0  0
  -22.8109  -47.0754   31.0370 O   0  0  0  0  0  0  0  0  0  0  0  0
  -25.0315  -48.0992   28.0643 C   0  0  2  0  0  0  0  0  0  0  0  0
  -23.8141  -47.2428   27.6712 C   0  0  0  0  0  0  0  0  0  0  0  0
  -23.8306  -46.8369   26.2360 C   0  0  0  0  0  0  0  0  0  0  0  0
  -26.2172  -47.2291   27.8744 C   0  0  0  0  0  0  0  0  0  0  0  0
  -27.0821  -47.3286   26.8788 C   0  0  0  0  0  0  0  0  0  0  0  0
  -26.8719  -48.4053   25.8367 C   0  0  0  0  0  0  0  0  0  0  0  0
  -26.3986  -49.5377   26.5739 N   0  0  1  0  0  0  0  0  0  0  0  0
  -26.0671  -50.6961   25.7691 C   0  0  0  0  0  0  0  0  0  0  0  0
  -25.4091  -51.5735   26.8474 C   0  0  0  0  0  0  0  0  0  0  0  0
  -24.8757  -50.6023   27.8799 C   0  0  2  0  0  0  0  0  0  0  0  0
  -25.1257  -49.2976   27.2174 C   0  0  2  0  0  0  0  0  0  0  0  0
  -19.2893  -49.4485   27.6674 C   0  0  0  0  0  0  0  0  0  0  0  0
  -15.4587  -48.3174   26.3456 C   0  0  0  0  0  0  0  0  0  0  0  0
  1  2  1  0
  2  3  1  0
  3  4  1  6
  3  5  1  0
  6  5  1  6
  6  7  1  0
  7  8  1  0
  8  9  1  6
  9 10  1  0
 10 11  1  0
 11 12  2  0
 12 13  1  0
 13 14  1  0
 14 15  2  0
 15 16  1  0
 16 17  2  0
 17 18  1  0
 18 19  2  0
 12 20  1  0
 20 21  1  6
 21 22  2  0
 21 23  1  0
 23 24  1  0
 20 25  1  0
 25 26  2  0
 26 27  1  0
 27 28  2  0
 28 29  1  0
 29 30  2  0
 30 31  1  0
 31 32  1  0
 28 33  1  0
 33 34  1  0
 35 33  1  1
 35 36  1  0
 36 37  1  1
 36 38  1  0
 38 39  2  0
 38 40  1  0
 40 41  1  0
 36 42  1  0
 42 43  1  1
 43 44  1  0
 44 45  1  0
 44 46  2  0
 42 47  1  0
 47 48  1  6
 48 49  1  0
 47 50  1  0
 50 51  2  0
 51 52  1  0
 53 52  1  6
 53 54  1  0
 54 55  1  0
 56 55  1  6
 56 57  1  0
 20 58  1  0
  8 59  1  0
 59  3  1  0
 58  6  1  0
 19 11  1  0
 30 25  1  0
 56 35  1  0
 19 14  1  0
 56 27  1  0
 57 47  1  0
 57 53  1  1
M  CHG  2   8   1  53   1
M  END
>  <shape_align_shape_tanimoto>  (2) 
0.36166316609171439

>  <shape_align_color_tanimoto>  (2) 
0.084854121337982785

>  <metric>  (2) 
color

>  <metric_score>  (2) 
0.085

>  <template_pid>  (2) 
1Z2B

>  <template_shape_score>  (2) 
0.362

>  <template_color_score>  (2) 
0.085

>  <template_combo_score>  (2) 
0.223

$$$$
1Z2B_combo_pose
     RDKit          3D

 59 67  0  0  0  0  0  0  0  0999 V2000
  -23.3613  -44.5033   30.8860 C   0  0  0  0  0  0  0  0  0  0  0  0
  -24.5505  -45.4296   30.7459 C   0  0  0  0  0  0  0  0  0  0  0  0
  -24.2536  -46.6592   31.6093 C   0  0  2  0  0  0  0  0  0  0  0  0
  -24.1013  -46.1723   32.9087 O   0  0  0  0  0  0  0  0  0  0  0  0
  -22.9229  -47.1814   31.1586 C   0  0  0  0  0  0  0  0  0  0  0  0
  -23.0876  -48.3749   30.2766 C   0  0  2  0  0  0  0  0  0  0  0  0
  -24.0414  -49.2109   31.0400 C   0  0  0  0  0  0  0  0  0  0  0  0
  -25.3026  -48.6115   30.6453 N   0  0  1  0  0  0  0  0  0  0  0  0
  -26.2106  -49.5904   30.3850 C   0  0  0  0  0  0  0  0  0  0  0  0
  -25.5190  -50.7284   29.6441 C   0  0  0  0  0  0  0  0  0  0  0  0
  -24.8281  -50.3567   28.4159 C   0  0  0  0  0  0  0  0  0  0  0  0
  -23.4983  -50.2146   28.1660 C   0  0  0  0  0  0  0  0  0  0  0  0
  -23.3530  -49.8439   26.8423 N   0  0  0  0  0  0  0  0  0  0  0  0
  -24.5293  -49.7490   26.2576 C   0  0  0  0  0  0  0  0  0  0  0  0
  -24.9047  -49.4171   24.9731 C   0  0  0  0  0  0  0  0  0  0  0  0
  -26.2084  -49.3836   24.5905 C   0  0  0  0  0  0  0  0  0  0  0  0
  -27.1747  -49.6891   25.5112 C   0  0  0  0  0  0  0  0  0  0  0  0
  -26.7943  -50.0209   26.7965 C   0  0  0  0  0  0  0  0  0  0  0  0
  -25.4691  -50.0528   27.1774 C   0  0  0  0  0  0  0  0  0  0  0  0
  -22.3827  -50.3981   29.1206 C   0  0  1  0  0  0  0  0  0  0  0  0
  -22.3418  -51.5964   29.9329 C   0  0  0  0  0  0  0  0  0  0  0  0
  -22.9878  -52.6529   29.8133 O   0  0  0  0  0  0  0  0  0  0  0  0
  -21.4382  -51.5799   31.0299 O   0  0  0  0  0  0  0  0  0  0  0  0
  -21.3979  -52.7622   31.8319 C   0  0  0  0  0  0  0  0  0  0  0  0
  -21.1110  -50.7304   28.2605 C   0  0  0  0  0  0  0  0  0  0  0  0
  -19.9769  -50.0017   28.3392 C   0  0  0  0  0  0  0  0  0  0  0  0
  -18.8522  -50.3596   27.5811 C   0  0  0  0  0  0  0  0  0  0  0  0
  -18.9299  -51.4496   26.7717 C   0  0  0  0  0  0  0  0  0  0  0  0
  -20.0906  -52.1943   26.6930 C   0  0  0  0  0  0  0  0  0  0  0  0
  -21.1922  -51.8347   27.4418 C   0  0  0  0  0  0  0  0  0  0  0  0
  -22.3218  -52.6256   27.3121 O   0  0  0  0  0  0  0  0  0  0  0  0
  -22.4458  -53.7514   26.4949 C   0  0  0  0  0  0  0  0  0  0  0  0
  -17.6557  -51.6062   26.0969 N   0  0  0  0  0  0  0  0  0  0  0  0
  -17.5798  -52.3693   24.8599 C   0  0  0  0  0  0  0  0  0  0  0  0
  -16.7005  -50.9125   26.8736 C   0  0  1  0  0  0  0  0  0  0  0  0
  -15.4215  -50.4992   26.2835 C   0  0  1  0  0  0  0  0  0  0  0  0
  -14.6785  -49.9555   27.3867 O   0  0  0  0  0  0  0  0  0  0  0  0
  -14.5706  -51.6229   25.8764 C   0  0  0  0  0  0  0  0  0  0  0  0
  -13.5695  -51.8802   26.6420 O   0  0  0  0  0  0  0  0  0  0  0  0
  -14.6994  -52.4352   24.7834 O   0  0  0  0  0  0  0  0  0  0  0  0
  -13.7790  -53.4831   24.5327 C   0  0  0  0  0  0  0  0  0  0  0  0
  -15.5036  -49.3717   25.2853 C   0  0  2  0  0  0  0  0  0  0  0  0
  -14.3434  -48.5518   25.4247 O   0  0  0  0  0  0  0  0  0  0  0  0
  -13.3973  -48.5274   24.4218 C   0  0  0  0  0  0  0  0  0  0  0  0
  -12.2087  -47.6315   24.6530 C   0  0  0  0  0  0  0  0  0  0  0  0
  -13.4579  -49.1847   23.3562 O   0  0  0  0  0  0  0  0  0  0  0  0
  -16.7086  -48.5167   25.3795 C   0  0  2  0  0  0  0  0  0  0  0  0
  -17.7232  -48.7294   24.2378 C   0  0  0  0  0  0  0  0  0  0  0  0
  -17.1144  -48.4337   22.9162 C   0  0  0  0  0  0  0  0  0  0  0  0
  -16.2890  -47.1153   25.0768 C   0  0  0  0  0  0  0  0  0  0  0  0
  -16.5226  -46.0595   25.8222 C   0  0  0  0  0  0  0  0  0  0  0  0
  -17.2856  -46.2475   27.1167 C   0  0  0  0  0  0  0  0  0  0  0  0
  -16.7734  -47.5354   27.5722 N   0  0  1  0  0  0  0  0  0  0  0  0
  -17.1747  -47.8842   28.8823 C   0  0  0  0  0  0  0  0  0  0  0  0
  -17.0453  -49.3845   28.8736 C   0  0  0  0  0  0  0  0  0  0  0  0
  -17.4716  -49.7557   27.4750 C   0  0  2  0  0  0  0  0  0  0  0  0
  -17.4001  -48.5090   26.7031 C   0  0  2  0  0  0  0  0  0  0  0  0
  -21.9642  -49.0906   29.7482 C   0  0  0  0  0  0  0  0  0  0  0  0
  -25.4512  -47.5580   31.5889 C   0  0  0  0  0  0  0  0  0  0  0  0
  1  2  1  0
  2  3  1  0
  3  4  1  1
  3  5  1  0
  6  5  1  1
  6  7  1  0
  7  8  1  0
  8  9  1  1
  9 10  1  0
 10 11  1  0
 11 12  2  0
 12 13  1  0
 13 14  1  0
 14 15  2  0
 15 16  1  0
 16 17  2  0
 17 18  1  0
 18 19  2  0
 12 20  1  0
 20 21  1  1
 21 22  2  0
 21 23  1  0
 23 24  1  0
 20 25  1  0
 25 26  2  0
 26 27  1  0
 27 28  2  0
 28 29  1  0
 29 30  2  0
 30 31  1  0
 31 32  1  0
 28 33  1  0
 33 34  1  0
 35 33  1  6
 35 36  1  0
 36 37  1  1
 36 38  1  0
 38 39  2  0
 38 40  1  0
 40 41  1  0
 36 42  1  0
 42 43  1  1
 43 44  1  0
 44 45  1  0
 44 46  2  0
 42 47  1  0
 47 48  1  6
 48 49  1  0
 47 50  1  0
 50 51  2  0
 51 52  1  0
 53 52  1  6
 53 54  1  0
 54 55  1  0
 56 55  1  1
 56 57  1  0
 20 58  1  0
  8 59  1  0
 59  3  1  0
 58  6  1  0
 19 11  1  0
 30 25  1  0
 56 35  1  0
 19 14  1  0
 56 27  1  0
 57 47  1  0
 57 53  1  1
M  CHG  2   8   1  53   1
M  END
>  <shape_align_shape_tanimoto>  (3) 
0.4814044842333306

>  <shape_align_color_tanimoto>  (3) 
0.042166186394192874

>  <metric>  (3) 
combo

>  <metric_score>  (3) 
0.262

>  <template_pid>  (3) 
1Z2B

>  <template_shape_score>  (3) 
0.481

>  <template_color_score>  (3) 
0.042

>  <template_combo_score>  (3) 
0.262

$$$$
