1JVU_shape_pose
     RDKit          3D

 21 22  0  0  0  0  0  0  0  0999 V2000
  -18.2557   -4.6651    3.8818 N   0  0  0  0  0  0  0  0  0  0  0  0
  -19.1710   -4.0694    3.1731 C   0  0  0  0  0  0  0  0  0  0  0  0
  -20.4540   -3.8544    3.6759 C   0  0  0  0  0  0  0  0  0  0  0  0
  -21.3596   -3.2063    2.8331 C   0  0  0  0  0  0  0  0  0  0  0  0
  -20.9816   -2.8205    1.6010 N   0  0  0  0  0  0  0  0  0  0  0  0
  -21.8709   -2.1447    0.6783 C   0  0  2  0  0  0  0  0  0  0  0  0
  -21.5103   -2.3810   -0.6506 O   0  0  0  0  0  0  0  0  0  0  0  0
  -22.2645   -1.4613   -1.3407 C   0  0  2  0  0  0  0  0  0  0  0  0
  -21.8369   -1.2983   -2.7736 C   0  0  0  0  0  0  0  0  0  0  0  0
  -21.9499   -2.5053   -3.4381 O   0  0  0  0  0  0  0  0  0  0  0  0
  -21.9079   -0.1684   -0.5966 C   0  0  1  0  0  0  0  0  0  0  0  0
  -22.9131    0.7517   -0.8349 O   0  0  0  0  0  0  0  0  0  0  0  0
  -21.8432   -0.6381    0.8310 C   0  0  1  0  0  0  0  0  0  0  0  0
  -22.9503   -0.2701    1.5726 O   0  0  0  0  0  0  0  0  0  0  0  0
  -22.6154    0.5399    2.9918 P   0  0  0  0  0  0  0  0  0  0  0  0
  -21.3604    1.3768    2.9376 O   0  0  0  0  0  0  0  0  0  0  0  0
  -23.9756    1.5232    3.3229 O   0  0  0  0  0  0  0  0  0  0  0  0
  -22.4585   -0.5125    4.3140 O   0  0  0  0  0  0  0  0  0  0  0  0
  -19.7167   -3.0564    1.1629 C   0  0  0  0  0  0  0  0  0  0  0  0
  -19.3568   -2.6916   -0.0040 O   0  0  0  0  0  0  0  0  0  0  0  0
  -18.8088   -3.6773    1.9384 N   0  0  0  0  0  0  0  0  0  0  0  0
  1  2  2  0
  2  3  1  0
  3  4  2  0
  4  5  1  0
  6  5  1  1
  6  7  1  0
  7  8  1  0
  8  9  1  6
  9 10  1  0
  8 11  1  0
 11 12  1  1
 11 13  1  0
 13 14  1  1
 14 15  1  0
 15 16  2  0
 15 17  1  0
 15 18  1  0
  5 19  1  0
 19 20  2  0
 19 21  1  0
 21  2  1  0
 13  6  1  0
M  END
>  <shape_align_shape_tanimoto>  (1) 
0.71194379831359156

>  <shape_align_color_tanimoto>  (1) 
0.20321071397140328

>  <metric>  (1) 
shape

>  <metric_score>  (1) 
0.712

>  <template_pid>  (1) 
1JVU

>  <template_shape_score>  (1) 
0.712

>  <template_color_score>  (1) 
0.203

>  <template_combo_score>  (1) 
0.458

$$$$
1JVU_color_pose
     RDKit          3D

 21 22  0  0  0  0  0  0  0  0999 V2000
  -18.2183   -4.6416    3.6864 N   0  0  0  0  0  0  0  0  0  0  0  0
  -19.1381   -4.0344    3.0137 C   0  0  0  0  0  0  0  0  0  0  0  0
  -20.3456   -3.6766    3.6031 C   0  0  0  0  0  0  0  0  0  0  0  0
  -21.2653   -3.0285    2.7939 C   0  0  0  0  0  0  0  0  0  0  0  0
  -20.9741   -2.7671    1.4870 N   0  0  0  0  0  0  0  0  0  0  0  0
  -21.9725   -2.0874    0.6888 C   0  0  2  0  0  0  0  0  0  0  0  0
  -21.9100   -2.3705   -0.6515 O   0  0  0  0  0  0  0  0  0  0  0  0
  -22.2925   -1.2410   -1.3556 C   0  0  2  0  0  0  0  0  0  0  0  0
  -21.4628   -1.2248   -2.6416 C   0  0  0  0  0  0  0  0  0  0  0  0
  -21.7107   -2.3669   -3.3827 O   0  0  0  0  0  0  0  0  0  0  0  0
  -22.0422   -0.0478   -0.5083 C   0  0  1  0  0  0  0  0  0  0  0  0
  -22.9291    1.0062   -0.7039 O   0  0  0  0  0  0  0  0  0  0  0  0
  -22.0454   -0.6064    0.8852 C   0  0  1  0  0  0  0  0  0  0  0  0
  -22.9933   -0.1636    1.7291 O   0  0  0  0  0  0  0  0  0  0  0  0
  -22.6032    0.6414    3.0963 P   0  0  0  0  0  0  0  0  0  0  0  0
  -21.3077    1.4133    2.7902 O   0  0  0  0  0  0  0  0  0  0  0  0
  -23.6828    1.8545    3.5538 O   0  0  0  0  0  0  0  0  0  0  0  0
  -22.2563   -0.2715    4.4576 O   0  0  0  0  0  0  0  0  0  0  0  0
  -19.7755   -3.1380    0.9546 C   0  0  0  0  0  0  0  0  0  0  0  0
  -19.5472   -2.8834   -0.2361 O   0  0  0  0  0  0  0  0  0  0  0  0
  -18.8708   -3.7661    1.7193 N   0  0  0  0  0  0  0  0  0  0  0  0
  1  2  2  0
  2  3  1  0
  3  4  2  0
  4  5  1  0
  6  5  1  1
  6  7  1  0
  7  8  1  0
  8  9  1  6
  9 10  1  0
  8 11  1  0
 11 12  1  1
 11 13  1  0
 13 14  1  6
 14 15  1  0
 15 16  2  0
 15 17  1  0
 15 18  1  0
  5 19  1  0
 19 20  2  0
 19 21  1  0
 21  2  1  0
 13  6  1  0
M  END
>  <shape_align_shape_tanimoto>  (2) 
0.69907535612600125

>  <shape_align_color_tanimoto>  (2) 
0.21371900077832195

>  <metric>  (2) 
color

>  <metric_score>  (2) 
0.214

>  <template_pid>  (2) 
1JVU

>  <template_shape_score>  (2) 
0.699

>  <template_color_score>  (2) 
0.214

>  <template_combo_score>  (2) 
0.456

$$$$
1JVU_combo_pose
     RDKit          3D

 21 22  0  0  0  0  0  0  0  0999 V2000
  -18.2557   -4.6651    3.8818 N   0  0  0  0  0  0  0  0  0  0  0  0
  -19.1710   -4.0694    3.1731 C   0  0  0  0  0  0  0  0  0  0  0  0
  -20.4540   -3.8544    3.6759 C   0  0  0  0  0  0  0  0  0  0  0  0
  -21.3596   -3.2063    2.8331 C   0  0  0  0  0  0  0  0  0  0  0  0
  -20.9816   -2.8205    1.6010 N   0  0  0  0  0  0  0  0  0  0  0  0
  -21.8709   -2.1447    0.6783 C   0  0  2  0  0  0  0  0  0  0  0  0
  -21.5103   -2.3810   -0.6506 O   0  0  0  0  0  0  0  0  0  0  0  0
  -22.2645   -1.4613   -1.3407 C   0  0  2  0  0  0  0  0  0  0  0  0
  -21.8369   -1.2983   -2.7736 C   0  0  0  0  0  0  0  0  0  0  0  0
  -21.9499   -2.5053   -3.4381 O   0  0  0  0  0  0  0  0  0  0  0  0
  -21.9079   -0.1684   -0.5966 C   0  0  1  0  0  0  0  0  0  0  0  0
  -22.9131    0.7517   -0.8349 O   0  0  0  0  0  0  0  0  0  0  0  0
  -21.8432   -0.6381    0.8310 C   0  0  1  0  0  0  0  0  0  0  0  0
  -22.9503   -0.2701    1.5726 O   0  0  0  0  0  0  0  0  0  0  0  0
  -22.6154    0.5399    2.9918 P   0  0  0  0  0  0  0  0  0  0  0  0
  -21.3604    1.3768    2.9376 O   0  0  0  0  0  0  0  0  0  0  0  0
  -23.9756    1.5232    3.3229 O   0  0  0  0  0  0  0  0  0  0  0  0
  -22.4585   -0.5125    4.3140 O   0  0  0  0  0  0  0  0  0  0  0  0
  -19.7167   -3.0564    1.1629 C   0  0  0  0  0  0  0  0  0  0  0  0
  -19.3568   -2.6916   -0.0040 O   0  0  0  0  0  0  0  0  0  0  0  0
  -18.8088   -3.6773    1.9384 N   0  0  0  0  0  0  0  0  0  0  0  0
  1  2  2  0
  2  3  1  0
  3  4  2  0
  4  5  1  0
  6  5  1  1
  6  7  1  0
  7  8  1  0
  8  9  1  6
  9 10  1  0
  8 11  1  0
 11 12  1  1
 11 13  1  0
 13 14  1  1
 14 15  1  0
 15 16  2  0
 15 17  1  0
 15 18  1  0
  5 19  1  0
 19 20  2  0
 19 21  1  0
 21  2  1  0
 13  6  1  0
M  END
>  <shape_align_shape_tanimoto>  (3) 
0.71194379831359156

>  <shape_align_color_tanimoto>  (3) 
0.20321071397140328

>  <metric>  (3) 
combo

>  <metric_score>  (3) 
0.458

>  <template_pid>  (3) 
1JVU

>  <template_shape_score>  (3) 
0.712

>  <template_color_score>  (3) 
0.203

>  <template_combo_score>  (3) 
0.458

$$$$
