5HFB_shape_pose
     RDKit          3D

 47 47  0  0  0  0  0  0  0  0999 V2000
   15.1214   22.3257   16.3429 C   0  0  0  0  0  0  0  0  0  0  0  0
   15.9732   21.3077   17.0637 C   0  0  0  0  0  0  0  0  0  0  0  0
   15.6590   19.9635   16.4295 C   0  0  0  0  0  0  0  0  0  0  0  0
   15.6611   21.3618   18.5236 C   0  0  2  0  0  0  0  0  0  0  0  0
   15.9674   22.7260   18.9826 N   0  0  0  0  0  0  0  0  0  0  0  0
   14.9692   23.4316   19.6801 C   0  0  0  0  0  0  0  0  0  0  0  0
   13.8666   22.7932   19.8681 O   0  0  0  0  0  0  0  0  0  0  0  0
   15.0242   24.7837   20.2188 C   0  0  2  0  0  0  0  0  0  0  0  0
   13.6871   25.5122   20.2177 C   0  0  0  0  0  0  0  0  0  0  0  0
   13.7975   26.5770   21.1080 O   0  0  0  0  0  0  0  0  0  0  0  0
   16.0407   25.6748   19.8054 N   0  0  0  0  0  0  0  0  0  0  0  0
   16.5151   25.9052   18.5019 C   0  0  0  0  0  0  0  0  0  0  0  0
   15.9764   25.2078   17.5542 O   0  0  0  0  0  0  0  0  0  0  0  0
   17.5478   26.8389   18.0646 C   0  0  1  0  0  0  0  0  0  0  0  0
   18.0367   26.5227   16.7385 N   0  0  0  0  0  0  0  0  0  0  0  0
   18.1067   27.3218   15.6102 C   0  0  0  0  0  0  0  0  0  0  0  0
   17.7105   28.5253   15.5309 O   0  0  0  0  0  0  0  0  0  0  0  0
   18.6854   26.7993   14.3266 C   0  0  2  0  0  0  0  0  0  0  0  0
   17.5876   26.5560   13.3107 C   0  0  0  0  0  0  0  0  0  0  0  0
   16.8203   27.7743   12.9634 C   0  0  0  0  0  0  0  0  0  0  0  0
   17.6945   28.8011   12.3636 C   0  0  0  0  0  0  0  0  0  0  0  0
   17.1577   30.1358   12.2484 N   0  0  0  0  0  0  0  0  0  0  0  0
   18.8626   28.5937   11.9467 O   0  0  0  0  0  0  0  0  0  0  0  0
   19.3529   25.5470   14.5236 N   0  0  0  0  0  0  0  0  0  0  0  0
   20.7193   25.4807   14.0666 C   0  0  0  0  0  0  0  0  0  0  0  0
   21.2475   26.5087   13.5019 O   0  0  0  0  0  0  0  0  0  0  0  0
   21.5923   24.3090   14.1934 C   0  0  2  0  0  0  0  0  0  0  0  0
   22.0835   23.8595   12.8299 C   0  0  0  0  0  0  0  0  0  0  0  0
   21.0371   23.1917   14.9133 N   0  0  0  0  0  0  0  0  0  0  0  0
   21.6225   22.8096   16.1767 C   0  0  0  0  0  0  0  0  0  0  0  0
   22.6135   23.4826   16.6156 O   0  0  0  0  0  0  0  0  0  0  0  0
   21.1521   21.6979   16.9924 C   0  0  1  0  0  0  0  0  0  0  0  0
   20.0604   20.9354   16.4081 N   0  0  0  0  0  0  0  0  0  0  0  0
   22.1956   20.7435   17.4858 C   0  0  0  0  0  0  0  0  0  0  0  0
   23.2418   21.3572   18.3373 C   0  0  0  0  0  0  0  0  0  0  0  0
   24.4300   21.7881   17.7710 C   0  0  0  0  0  0  0  0  0  0  0  0
   25.4109   22.3756   18.5799 C   0  0  0  0  0  0  0  0  0  0  0  0
   25.1125   22.4815   19.9060 C   0  0  0  0  0  0  0  0  0  0  0  0
   26.1103   23.0748   20.7195 O   0  0  0  0  0  0  0  0  0  0  0  0
   23.9585   22.0727   20.5125 C   0  0  0  0  0  0  0  0  0  0  0  0
   22.9889   21.4888   19.6917 C   0  0  0  0  0  0  0  0  0  0  0  0
   17.0656   28.2945   18.1152 C   0  0  1  0  0  0  0  0  0  0  0  0
   16.6452   28.6297   19.5157 C   0  0  0  0  0  0  0  0  0  0  0  0
   18.1816   29.1221   17.8582 O   0  0  0  0  0  0  0  0  0  0  0  0
   16.5675   20.4075   19.2544 C   0  0  0  0  0  0  0  0  0  0  0  0
   16.3564   19.1680   19.2743 O   0  0  0  0  0  0  0  0  0  0  0  0
   17.6906   20.8578   19.9475 O   0  0  0  0  0  0  0  0  0  0  0  0
  1  2  1  0
  2  3  1  0
  2  4  1  0
  4  5  1  1
  5  6  1  0
  6  7  2  0
  6  8  1  0
  8  9  1  6
  9 10  1  0
  8 11  1  0
 11 12  1  0
 12 13  2  0
 12 14  1  0
 14 15  1  6
 15 16  1  0
 16 17  2  0
 16 18  1  0
 18 19  1  6
 19 20  1  0
 20 21  1  0
 21 22  1  0
 21 23  2  0
 18 24  1  0
 24 25  1  0
 25 26  2  0
 25 27  1  0
 27 28  1  6
 27 29  1  0
 29 30  1  0
 30 31  2  0
 30 32  1  0
 32 33  1  6
 32 34  1  0
 34 35  1  0
 35 36  2  0
 36 37  1  0
 37 38  2  0
 38 39  1  0
 38 40  1  0
 40 41  2  0
 14 42  1  0
 42 43  1  1
 42 44  1  0
  4 45  1  0
 45 46  2  0
 45 47  1  0
 41 35  1  0
M  CHG  2  33   1  47  -1
M  END
>  <shape_align_shape_tanimoto>  (1) 
0.41968092785464339

>  <shape_align_color_tanimoto>  (1) 
0.050918261544512428

>  <metric>  (1) 
shape

>  <metric_score>  (1) 
0.420

>  <template_pid>  (1) 
5HFB

>  <template_shape_score>  (1) 
0.420

>  <template_color_score>  (1) 
0.051

>  <template_combo_score>  (1) 
0.235

$$$$
5HFB_color_pose
     RDKit          3D

 47 47  0  0  0  0  0  0  0  0999 V2000
   20.7305   29.6806   14.3520 C   0  0  0  0  0  0  0  0  0  0  0  0
   19.7223   29.7011   13.2326 C   0  0  0  0  0  0  0  0  0  0  0  0
   20.4815   29.9118   11.9290 C   0  0  0  0  0  0  0  0  0  0  0  0
   18.9602   28.3950   13.2059 C   0  0  2  0  0  0  0  0  0  0  0  0
   19.9594   27.3370   12.9971 N   0  0  0  0  0  0  0  0  0  0  0  0
   20.0122   26.1674   13.7683 C   0  0  0  0  0  0  0  0  0  0  0  0
   19.2042   25.9250   14.7013 O   0  0  0  0  0  0  0  0  0  0  0  0
   21.0546   25.0927   13.5402 C   0  0  2  0  0  0  0  0  0  0  0  0
   21.0515   24.6238   12.1082 C   0  0  0  0  0  0  0  0  0  0  0  0
   21.2702   25.5947   11.1698 O   0  0  0  0  0  0  0  0  0  0  0  0
   20.8282   23.9974   14.4659 N   0  0  0  0  0  0  0  0  0  0  0  0
   21.5865   23.7479   15.6217 C   0  0  0  0  0  0  0  0  0  0  0  0
   22.5428   24.5307   15.9102 O   0  0  0  0  0  0  0  0  0  0  0  0
   21.3356   22.6256   16.5227 C   0  0  1  0  0  0  0  0  0  0  0  0
   20.2978   21.7671   15.9552 N   0  0  0  0  0  0  0  0  0  0  0  0
   19.0387   21.5837   16.5432 C   0  0  0  0  0  0  0  0  0  0  0  0
   18.8686   22.2547   17.6446 O   0  0  0  0  0  0  0  0  0  0  0  0
   17.9251   20.7712   16.1227 C   0  0  2  0  0  0  0  0  0  0  0  0
   17.2485   20.9537   14.8348 C   0  0  0  0  0  0  0  0  0  0  0  0
   18.0973   20.7544   13.6425 C   0  0  0  0  0  0  0  0  0  0  0  0
   17.2849   20.9157   12.3698 C   0  0  0  0  0  0  0  0  0  0  0  0
   17.9989   20.6694   11.1446 N   0  0  0  0  0  0  0  0  0  0  0  0
   16.0787   21.2410   12.3938 O   0  0  0  0  0  0  0  0  0  0  0  0
   16.9195   20.8278   17.2251 N   0  0  0  0  0  0  0  0  0  0  0  0
   16.7080   19.7289   18.0802 C   0  0  0  0  0  0  0  0  0  0  0  0
   17.4126   18.6806   17.8802 O   0  0  0  0  0  0  0  0  0  0  0  0
   15.7459   19.6660   19.1901 C   0  0  2  0  0  0  0  0  0  0  0  0
   14.6466   18.6314   18.8855 C   0  0  0  0  0  0  0  0  0  0  0  0
   15.0160   20.9129   19.3935 N   0  0  0  0  0  0  0  0  0  0  0  0
   14.8092   21.3153   20.7338 C   0  0  0  0  0  0  0  0  0  0  0  0
   15.2900   20.5489   21.6426 O   0  0  0  0  0  0  0  0  0  0  0  0
   14.1033   22.5056   21.1927 C   0  0  1  0  0  0  0  0  0  0  0  0
   14.0278   22.3688   22.6699 N   0  0  0  0  0  0  0  0  0  0  0  0
   14.7065   23.8263   20.9456 C   0  0  0  0  0  0  0  0  0  0  0  0
   14.9501   24.2412   19.5728 C   0  0  0  0  0  0  0  0  0  0  0  0
   13.9330   24.8701   18.8833 C   0  0  0  0  0  0  0  0  0  0  0  0
   14.0504   25.3311   17.5914 C   0  0  0  0  0  0  0  0  0  0  0  0
   15.2557   25.1605   16.9312 C   0  0  0  0  0  0  0  0  0  0  0  0
   15.3793   25.6258   15.6221 O   0  0  0  0  0  0  0  0  0  0  0  0
   16.2784   24.5345   17.6072 C   0  0  0  0  0  0  0  0  0  0  0  0
   16.1434   24.0772   18.9057 C   0  0  0  0  0  0  0  0  0  0  0  0
   22.5448   21.7840   16.8207 C   0  0  1  0  0  0  0  0  0  0  0  0
   23.6829   22.5383   17.4282 C   0  0  0  0  0  0  0  0  0  0  0  0
   22.1049   20.8024   17.7359 O   0  0  0  0  0  0  0  0  0  0  0  0
   18.0553   28.4762   12.0209 C   0  0  0  0  0  0  0  0  0  0  0  0
   18.2504   27.9168   10.9388 O   0  0  0  0  0  0  0  0  0  0  0  0
   16.9020   29.2581   12.1850 O   0  0  0  0  0  0  0  0  0  0  0  0
  1  2  1  0
  2  3  1  0
  2  4  1  0
  4  5  1  6
  5  6  1  0
  6  7  2  0
  6  8  1  0
  8  9  1  6
  9 10  1  0
  8 11  1  0
 11 12  1  0
 12 13  2  0
 12 14  1  0
 14 15  1  6
 15 16  1  0
 16 17  2  0
 16 18  1  0
 18 19  1  6
 19 20  1  0
 20 21  1  0
 21 22  1  0
 21 23  2  0
 18 24  1  0
 24 25  1  0
 25 26  2  0
 25 27  1  0
 27 28  1  6
 27 29  1  0
 29 30  1  0
 30 31  2  0
 30 32  1  0
 32 33  1  1
 32 34  1  0
 34 35  1  0
 35 36  2  0
 36 37  1  0
 37 38  2  0
 38 39  1  0
 38 40  1  0
 40 41  2  0
 14 42  1  0
 42 43  1  1
 42 44  1  0
  4 45  1  0
 45 46  2  0
 45 47  1  0
 41 35  1  0
M  CHG  2  33   1  47  -1
M  END
>  <shape_align_shape_tanimoto>  (2) 
0.31619856392329843

>  <shape_align_color_tanimoto>  (2) 
0.072006704726898879

>  <metric>  (2) 
color

>  <metric_score>  (2) 
0.072

>  <template_pid>  (2) 
5HFB

>  <template_shape_score>  (2) 
0.316

>  <template_color_score>  (2) 
0.072

>  <template_combo_score>  (2) 
0.194

$$$$
5HFB_combo_pose
     RDKit          3D

 47 47  0  0  0  0  0  0  0  0999 V2000
   15.1214   22.3257   16.3429 C   0  0  0  0  0  0  0  0  0  0  0  0
   15.9732   21.3077   17.0637 C   0  0  0  0  0  0  0  0  0  0  0  0
   15.6590   19.9635   16.4295 C   0  0  0  0  0  0  0  0  0  0  0  0
   15.6611   21.3618   18.5236 C   0  0  2  0  0  0  0  0  0  0  0  0
   15.9674   22.7260   18.9826 N   0  0  0  0  0  0  0  0  0  0  0  0
   14.9692   23.4316   19.6801 C   0  0  0  0  0  0  0  0  0  0  0  0
   13.8666   22.7932   19.8681 O   0  0  0  0  0  0  0  0  0  0  0  0
   15.0242   24.7837   20.2188 C   0  0  2  0  0  0  0  0  0  0  0  0
   13.6871   25.5122   20.2177 C   0  0  0  0  0  0  0  0  0  0  0  0
   13.7975   26.5770   21.1080 O   0  0  0  0  0  0  0  0  0  0  0  0
   16.0407   25.6748   19.8054 N   0  0  0  0  0  0  0  0  0  0  0  0
   16.5151   25.9052   18.5019 C   0  0  0  0  0  0  0  0  0  0  0  0
   15.9764   25.2078   17.5542 O   0  0  0  0  0  0  0  0  0  0  0  0
   17.5478   26.8389   18.0646 C   0  0  1  0  0  0  0  0  0  0  0  0
   18.0367   26.5227   16.7385 N   0  0  0  0  0  0  0  0  0  0  0  0
   18.1067   27.3218   15.6102 C   0  0  0  0  0  0  0  0  0  0  0  0
   17.7105   28.5253   15.5309 O   0  0  0  0  0  0  0  0  0  0  0  0
   18.6854   26.7993   14.3266 C   0  0  2  0  0  0  0  0  0  0  0  0
   17.5876   26.5560   13.3107 C   0  0  0  0  0  0  0  0  0  0  0  0
   16.8203   27.7743   12.9634 C   0  0  0  0  0  0  0  0  0  0  0  0
   17.6945   28.8011   12.3636 C   0  0  0  0  0  0  0  0  0  0  0  0
   17.1577   30.1358   12.2484 N   0  0  0  0  0  0  0  0  0  0  0  0
   18.8626   28.5937   11.9467 O   0  0  0  0  0  0  0  0  0  0  0  0
   19.3529   25.5470   14.5236 N   0  0  0  0  0  0  0  0  0  0  0  0
   20.7193   25.4807   14.0666 C   0  0  0  0  0  0  0  0  0  0  0  0
   21.2475   26.5087   13.5019 O   0  0  0  0  0  0  0  0  0  0  0  0
   21.5923   24.3090   14.1934 C   0  0  2  0  0  0  0  0  0  0  0  0
   22.0835   23.8595   12.8299 C   0  0  0  0  0  0  0  0  0  0  0  0
   21.0371   23.1917   14.9133 N   0  0  0  0  0  0  0  0  0  0  0  0
   21.6225   22.8096   16.1767 C   0  0  0  0  0  0  0  0  0  0  0  0
   22.6135   23.4826   16.6156 O   0  0  0  0  0  0  0  0  0  0  0  0
   21.1521   21.6979   16.9924 C   0  0  1  0  0  0  0  0  0  0  0  0
   20.0604   20.9354   16.4081 N   0  0  0  0  0  0  0  0  0  0  0  0
   22.1956   20.7435   17.4858 C   0  0  0  0  0  0  0  0  0  0  0  0
   23.2418   21.3572   18.3373 C   0  0  0  0  0  0  0  0  0  0  0  0
   24.4300   21.7881   17.7710 C   0  0  0  0  0  0  0  0  0  0  0  0
   25.4109   22.3756   18.5799 C   0  0  0  0  0  0  0  0  0  0  0  0
   25.1125   22.4815   19.9060 C   0  0  0  0  0  0  0  0  0  0  0  0
   26.1103   23.0748   20.7195 O   0  0  0  0  0  0  0  0  0  0  0  0
   23.9585   22.0727   20.5125 C   0  0  0  0  0  0  0  0  0  0  0  0
   22.9889   21.4888   19.6917 C   0  0  0  0  0  0  0  0  0  0  0  0
   17.0656   28.2945   18.1152 C   0  0  1  0  0  0  0  0  0  0  0  0
   16.6452   28.6297   19.5157 C   0  0  0  0  0  0  0  0  0  0  0  0
   18.1816   29.1221   17.8582 O   0  0  0  0  0  0  0  0  0  0  0  0
   16.5675   20.4075   19.2544 C   0  0  0  0  0  0  0  0  0  0  0  0
   16.3564   19.1680   19.2743 O   0  0  0  0  0  0  0  0  0  0  0  0
   17.6906   20.8578   19.9475 O   0  0  0  0  0  0  0  0  0  0  0  0
  1  2  1  0
  2  3  1  0
  2  4  1  0
  4  5  1  1
  5  6  1  0
  6  7  2  0
  6  8  1  0
  8  9  1  6
  9 10  1  0
  8 11  1  0
 11 12  1  0
 12 13  2  0
 12 14  1  0
 14 15  1  6
 15 16  1  0
 16 17  2  0
 16 18  1  0
 18 19  1  6
 19 20  1  0
 20 21  1  0
 21 22  1  0
 21 23  2  0
 18 24  1  0
 24 25  1  0
 25 26  2  0
 25 27  1  0
 27 28  1  6
 27 29  1  0
 29 30  1  0
 30 31  2  0
 30 32  1  0
 32 33  1  6
 32 34  1  0
 34 35  1  0
 35 36  2  0
 36 37  1  0
 37 38  2  0
 38 39  1  0
 38 40  1  0
 40 41  2  0
 14 42  1  0
 42 43  1  1
 42 44  1  0
  4 45  1  0
 45 46  2  0
 45 47  1  0
 41 35  1  0
M  CHG  2  33   1  47  -1
M  END
>  <shape_align_shape_tanimoto>  (3) 
0.41968092785464339

>  <shape_align_color_tanimoto>  (3) 
0.050918261544512428

>  <metric>  (3) 
combo

>  <metric_score>  (3) 
0.235

>  <template_pid>  (3) 
5HFB

>  <template_shape_score>  (3) 
0.420

>  <template_color_score>  (3) 
0.051

>  <template_combo_score>  (3) 
0.235

$$$$
