6KJF_shape_pose
     RDKit          3D

 31 32  0  0  0  0  0  0  0  0999 V2000
  -20.0701  -11.4393   59.2146 C   0  0  0  0  0  0  0  0  0  0  0  0
  -18.9799  -10.4862   59.6904 C   0  0  0  0  0  0  0  0  0  0  0  0
  -18.4770  -10.9633   61.0331 C   0  0  0  0  0  0  0  0  0  0  0  0
  -19.6422  -10.9588   61.9895 C   0  0  0  0  0  0  0  0  0  0  0  0
  -18.0340  -12.4078   60.8575 C   0  0  0  0  0  0  0  0  0  0  0  0
  -17.3591  -10.0847   61.4504 C   0  0  0  0  0  0  0  0  0  0  0  0
  -16.2430  -10.6387   61.6339 O   0  0  0  0  0  0  0  0  0  0  0  0
  -17.6032   -8.7396   61.6105 O   0  0  0  0  0  0  0  0  0  0  0  0
  -16.6024   -7.8686   62.0067 C   0  0  1  0  0  0  0  0  0  0  0  0
  -16.2578   -7.0795   60.7446 C   0  0  0  0  0  0  0  0  0  0  0  0
  -17.3024   -6.1491   60.2882 C   0  0  1  0  0  0  0  0  0  0  0  0
  -18.4411   -6.7465   59.5093 C   0  0  0  0  0  0  0  0  0  0  0  0
  -17.8838   -5.4419   61.4324 C   0  0  0  0  0  0  0  0  0  0  0  0
  -17.7120   -5.8017   62.7154 C   0  0  0  0  0  0  0  0  0  0  0  0
  -18.3850   -4.9497   63.6882 C   0  0  0  0  0  0  0  0  0  0  0  0
  -18.5440   -5.4147   64.8971 C   0  0  0  0  0  0  0  0  0  0  0  0
  -18.0906   -6.7560   65.3685 C   0  0  2  0  0  0  0  0  0  0  0  0
  -17.2058   -6.4184   66.5622 C   0  0  0  0  0  0  0  0  0  0  0  0
  -17.4970   -7.6533   64.3663 C   0  0  2  0  0  0  0  0  0  0  0  0
  -16.6198   -8.7263   64.8490 C   0  0  0  0  0  0  0  0  0  0  0  0
  -16.9522   -9.8253   65.7066 C   0  0  0  0  0  0  0  0  0  0  0  0
  -17.4547   -9.7551   67.0905 C   0  0  1  0  0  0  0  0  0  0  0  0
  -18.6453   -9.1510   67.3399 O   0  0  0  0  0  0  0  0  0  0  0  0
  -17.5953  -11.1973   67.5574 C   0  0  0  0  0  0  0  0  0  0  0  0
  -18.0905  -11.4209   68.9161 C   0  0  1  0  0  0  0  0  0  0  0  0
  -18.1443  -12.8621   69.0451 O   0  0  0  0  0  0  0  0  0  0  0  0
  -17.3346  -10.9237   70.0852 C   0  0  0  0  0  0  0  0  0  0  0  0
  -17.0932   -9.4898   70.2203 C   0  0  0  0  0  0  0  0  0  0  0  0
  -15.9461   -8.9497   70.2612 O   0  0  0  0  0  0  0  0  0  0  0  0
  -18.1654   -8.5802   70.3187 O   0  0  0  0  0  0  0  0  0  0  0  0
  -16.9097   -6.9545   63.1507 C   0  0  1  0  0  0  0  0  0  0  0  0
  1  2  1  0
  2  3  1  0
  3  4  1  0
  3  5  1  0
  3  6  1  0
  6  7  2  0
  6  8  1  0
  9  8  1  6
  9 10  1  0
 10 11  1  0
 11 12  1  1
 11 13  1  0
 13 14  2  0
 14 15  1  0
 15 16  2  0
 16 17  1  0
 17 18  1  1
 17 19  1  0
 19 20  1  1
 20 21  1  0
 21 22  1  0
 22 23  1  6
 22 24  1  0
 24 25  1  0
 25 26  1  1
 25 27  1  0
 27 28  1  0
 28 29  2  0
 28 30  1  0
 19 31  1  0
 31  9  1  0
 31 14  1  6
M  CHG  1  30  -1
M  END
>  <shape_align_shape_tanimoto>  (1) 
0.50873810308761203

>  <shape_align_color_tanimoto>  (1) 
0.010159200535733234

>  <metric>  (1) 
shape

>  <metric_score>  (1) 
0.509

>  <template_pid>  (1) 
6KJF

>  <template_shape_score>  (1) 
0.509

>  <template_color_score>  (1) 
0.010

>  <template_combo_score>  (1) 
0.259

$$$$
6KJF_color_pose
     RDKit          3D

 31 32  0  0  0  0  0  0  0  0999 V2000
  -18.3450   -3.6761   64.2025 C   0  0  0  0  0  0  0  0  0  0  0  0
  -17.4602   -4.8660   64.0289 C   0  0  0  0  0  0  0  0  0  0  0  0
  -17.9729   -5.8098   62.9579 C   0  0  0  0  0  0  0  0  0  0  0  0
  -19.3518   -6.3130   63.3191 C   0  0  0  0  0  0  0  0  0  0  0  0
  -18.1170   -4.9896   61.6931 C   0  0  0  0  0  0  0  0  0  0  0  0
  -17.0131   -6.9004   62.7207 C   0  0  0  0  0  0  0  0  0  0  0  0
  -16.4697   -7.1057   61.5931 O   0  0  0  0  0  0  0  0  0  0  0  0
  -16.7001   -7.7379   63.8047 O   0  0  0  0  0  0  0  0  0  0  0  0
  -15.8057   -8.7854   63.6601 C   0  0  1  0  0  0  0  0  0  0  0  0
  -14.5103   -8.5551   64.4095 C   0  0  0  0  0  0  0  0  0  0  0  0
  -13.4867   -9.6096   64.0750 C   0  0  1  0  0  0  0  0  0  0  0  0
  -12.3959   -9.6417   65.1254 C   0  0  0  0  0  0  0  0  0  0  0  0
  -14.0815  -10.9666   64.0115 C   0  0  0  0  0  0  0  0  0  0  0  0
  -15.3535  -11.1906   63.9066 C   0  0  0  0  0  0  0  0  0  0  0  0
  -15.9177  -12.5600   63.8467 C   0  0  0  0  0  0  0  0  0  0  0  0
  -17.1830  -12.6953   64.1755 C   0  0  0  0  0  0  0  0  0  0  0  0
  -18.0957  -11.6172   64.5980 C   0  0  2  0  0  0  0  0  0  0  0  0
  -18.9495  -11.2847   63.3733 C   0  0  0  0  0  0  0  0  0  0  0  0
  -17.2740  -10.3896   65.0209 C   0  0  2  0  0  0  0  0  0  0  0  0
  -18.1120   -9.2663   65.4839 C   0  0  0  0  0  0  0  0  0  0  0  0
  -18.9574   -9.6331   66.6361 C   0  0  0  0  0  0  0  0  0  0  0  0
  -18.3547  -10.0865   67.8943 C   0  0  1  0  0  0  0  0  0  0  0  0
  -17.5920  -11.2359   67.7888 O   0  0  0  0  0  0  0  0  0  0  0  0
  -17.5127   -9.0647   68.6129 C   0  0  0  0  0  0  0  0  0  0  0  0
  -16.9370   -9.6242   69.8930 C   0  0  1  0  0  0  0  0  0  0  0  0
  -16.1267  -10.7347   69.6543 O   0  0  0  0  0  0  0  0  0  0  0  0
  -16.0681   -8.6305   70.6277 C   0  0  0  0  0  0  0  0  0  0  0  0
  -14.9059   -8.1926   69.8305 C   0  0  0  0  0  0  0  0  0  0  0  0
  -14.6152   -8.5988   68.6849 O   0  0  0  0  0  0  0  0  0  0  0  0
  -14.0599   -7.2477   70.3996 O   0  0  0  0  0  0  0  0  0  0  0  0
  -16.3994  -10.1030   63.8419 C   0  0  1  0  0  0  0  0  0  0  0  0
  1  2  1  0
  2  3  1  0
  3  4  1  0
  3  5  1  0
  3  6  1  0
  6  7  2  0
  6  8  1  0
  9  8  1  1
  9 10  1  0
 10 11  1  0
 11 12  1  1
 11 13  1  0
 13 14  2  0
 14 15  1  0
 15 16  2  0
 16 17  1  0
 17 18  1  6
 17 19  1  0
 19 20  1  6
 20 21  1  0
 21 22  1  0
 22 23  1  6
 22 24  1  0
 24 25  1  0
 25 26  1  6
 25 27  1  0
 27 28  1  0
 28 29  2  0
 28 30  1  0
 19 31  1  0
 31  9  1  0
 31 14  1  1
M  CHG  1  30  -1
M  END
>  <shape_align_shape_tanimoto>  (2) 
0.36277849082854968

>  <shape_align_color_tanimoto>  (2) 
0.11965499265689011

>  <metric>  (2) 
color

>  <metric_score>  (2) 
0.120

>  <template_pid>  (2) 
6KJF

>  <template_shape_score>  (2) 
0.363

>  <template_color_score>  (2) 
0.120

>  <template_combo_score>  (2) 
0.241

$$$$
6KJF_combo_pose
     RDKit          3D

 31 32  0  0  0  0  0  0  0  0999 V2000
  -15.9977  -15.8587   69.2950 C   0  0  0  0  0  0  0  0  0  0  0  0
  -16.8111  -14.5860   69.2273 C   0  0  0  0  0  0  0  0  0  0  0  0
  -17.1816  -14.2650   67.7945 C   0  0  0  0  0  0  0  0  0  0  0  0
  -15.9316  -14.0851   66.9761 C   0  0  0  0  0  0  0  0  0  0  0  0
  -17.9269  -15.4597   67.2433 C   0  0  0  0  0  0  0  0  0  0  0  0
  -18.0470  -13.0851   67.6883 C   0  0  0  0  0  0  0  0  0  0  0  0
  -19.2168  -13.1244   67.1771 O   0  0  0  0  0  0  0  0  0  0  0  0
  -17.6528  -11.8216   68.1421 O   0  0  0  0  0  0  0  0  0  0  0  0
  -18.5024  -10.6946   68.0308 C   0  0  1  0  0  0  0  0  0  0  0  0
  -18.7358  -10.1686   69.4328 C   0  0  0  0  0  0  0  0  0  0  0  0
  -17.4462   -9.8744   70.1394 C   0  0  1  0  0  0  0  0  0  0  0  0
  -17.0993  -11.0006   71.0901 C   0  0  0  0  0  0  0  0  0  0  0  0
  -16.3209   -9.5831   69.2153 C   0  0  0  0  0  0  0  0  0  0  0  0
  -16.4659   -9.4277   67.9100 C   0  0  0  0  0  0  0  0  0  0  0  0
  -15.3005   -9.1442   67.0868 C   0  0  0  0  0  0  0  0  0  0  0  0
  -15.3089   -9.6048   65.8335 C   0  0  0  0  0  0  0  0  0  0  0  0
  -16.5167  -10.3599   65.4216 C   0  0  2  0  0  0  0  0  0  0  0  0
  -16.4501  -10.8296   63.9940 C   0  0  0  0  0  0  0  0  0  0  0  0
  -17.7965   -9.7380   65.8097 C   0  0  2  0  0  0  0  0  0  0  0  0
  -18.1901   -8.4641   65.1463 C   0  0  0  0  0  0  0  0  0  0  0  0
  -17.3026   -7.3056   65.2908 C   0  0  0  0  0  0  0  0  0  0  0  0
  -17.8570   -6.1045   64.5623 C   0  0  1  0  0  0  0  0  0  0  0  0
  -17.0018   -4.9964   64.7244 O   0  0  0  0  0  0  0  0  0  0  0  0
  -18.1091   -6.3435   63.0893 C   0  0  0  0  0  0  0  0  0  0  0  0
  -16.8859   -6.7024   62.3145 C   0  0  1  0  0  0  0  0  0  0  0  0
  -16.2481   -7.8472   62.7292 O   0  0  0  0  0  0  0  0  0  0  0  0
  -17.1166   -6.7887   60.8404 C   0  0  0  0  0  0  0  0  0  0  0  0
  -17.5741   -5.5640   60.1922 C   0  0  0  0  0  0  0  0  0  0  0  0
  -17.7588   -4.4504   60.7311 O   0  0  0  0  0  0  0  0  0  0  0  0
  -17.8404   -5.6264   58.8125 O   0  0  0  0  0  0  0  0  0  0  0  0
  -17.8115   -9.5427   67.3067 C   0  0  1  0  0  0  0  0  0  0  0  0
  1  2  1  0
  2  3  1  0
  3  4  1  0
  3  5  1  0
  3  6  1  0
  6  7  2  0
  6  8  1  0
  9  8  1  1
  9 10  1  0
 10 11  1  0
 11 12  1  6
 11 13  1  0
 13 14  2  0
 14 15  1  0
 15 16  2  0
 16 17  1  0
 17 18  1  6
 17 19  1  0
 19 20  1  6
 20 21  1  0
 21 22  1  0
 22 23  1  6
 22 24  1  0
 24 25  1  0
 25 26  1  1
 25 27  1  0
 27 28  1  0
 28 29  2  0
 28 30  1  0
 19 31  1  0
 31  9  1  0
 31 14  1  1
M  CHG  1  30  -1
M  END
>  <shape_align_shape_tanimoto>  (3) 
0.4984012243935167

>  <shape_align_color_tanimoto>  (3) 
0.071728057973053982

>  <metric>  (3) 
combo

>  <metric_score>  (3) 
0.285

>  <template_pid>  (3) 
6KJF

>  <template_shape_score>  (3) 
0.498

>  <template_color_score>  (3) 
0.072

>  <template_combo_score>  (3) 
0.285

$$$$
