6MD6_shape_pose
     RDKit          3D

 24 25  0  0  0  0  0  0  0  0999 V2000
   63.2489   66.5732   11.0797 C   0  0  0  0  0  0  0  0  0  0  0  0
   62.3241   67.5187   10.5688 O   0  0  0  0  0  0  0  0  0  0  0  0
   61.7140   68.1517   11.6328 C   0  0  2  0  0  0  0  0  0  0  0  0
   60.3695   67.8046   11.7844 O   0  0  0  0  0  0  0  0  0  0  0  0
   59.7810   68.4557   12.8555 C   0  0  2  0  0  0  0  0  0  0  0  0
   58.6112   69.3332   12.4808 C   0  0  0  0  0  0  0  0  0  0  0  0
   58.0833   69.9543   13.6375 O   0  0  0  0  0  0  0  0  0  0  0  0
   60.7485   69.0873   13.8017 C   0  0  1  0  0  0  0  0  0  0  0  0
   61.3261   68.1332   14.6688 O   0  0  0  0  0  0  0  0  0  0  0  0
   61.7898   69.9654   13.2092 C   0  0  2  0  0  0  0  0  0  0  0  0
   61.5216   71.3234   13.3706 O   0  0  0  0  0  0  0  0  0  0  0  0
   61.9342   69.6195   11.7425 C   0  0  1  0  0  0  0  0  0  0  0  0
   63.5159   70.1735   11.1341 S   0  0  0  0  0  0  0  0  0  0  0  0
   63.7209   70.0661    9.3448 C   0  0  2  0  0  0  0  0  0  0  0  0
   63.7528   68.8073    8.8280 O   0  0  0  0  0  0  0  0  0  0  0  0
   64.4589   68.6688    7.6515 C   0  0  2  0  0  0  0  0  0  0  0  0
   64.3374   67.2148    7.2204 C   0  0  0  0  0  0  0  0  0  0  0  0
   65.0232   66.9668    6.0296 O   0  0  0  0  0  0  0  0  0  0  0  0
   65.8992   69.0304    7.6994 C   0  0  1  0  0  0  0  0  0  0  0  0
   66.2704   69.4692    6.4095 O   0  0  0  0  0  0  0  0  0  0  0  0
   66.1203   70.1690    8.6359 C   0  0  2  0  0  0  0  0  0  0  0  0
   66.6652   69.7373    9.8582 O   0  0  0  0  0  0  0  0  0  0  0  0
   64.8476   70.9501    8.8543 C   0  0  1  0  0  0  0  0  0  0  0  0
   64.4736   71.5442    7.6541 O   0  0  0  0  0  0  0  0  0  0  0  0
  1  2  1  0
  3  2  1  6
  3  4  1  0
  4  5  1  0
  5  6  1  6
  6  7  1  0
  5  8  1  0
  8  9  1  6
  8 10  1  0
 10 11  1  6
 10 12  1  0
 12 13  1  1
 14 13  1  1
 14 15  1  0
 15 16  1  0
 16 17  1  1
 17 18  1  0
 16 19  1  0
 19 20  1  6
 19 21  1  0
 21 22  1  1
 21 23  1  0
 23 24  1  6
 12  3  1  0
 23 14  1  0
M  END
>  <shape_align_shape_tanimoto>  (1) 
0.64211611734498597

>  <shape_align_color_tanimoto>  (1) 
0.017402687621685783

>  <metric>  (1) 
shape

>  <metric_score>  (1) 
0.642

>  <template_pid>  (1) 
6MD6

>  <template_shape_score>  (1) 
0.642

>  <template_color_score>  (1) 
0.017

>  <template_combo_score>  (1) 
0.330

$$$$
6MD6_color_pose
     RDKit          3D

 24 25  0  0  0  0  0  0  0  0999 V2000
   63.7069   71.3811   13.4401 C   0  0  0  0  0  0  0  0  0  0  0  0
   62.5313   70.6647   13.7219 O   0  0  0  0  0  0  0  0  0  0  0  0
   61.9709   70.1920   12.5385 C   0  0  2  0  0  0  0  0  0  0  0  0
   60.6868   70.6665   12.4414 O   0  0  0  0  0  0  0  0  0  0  0  0
   59.8717   69.8774   11.6319 C   0  0  2  0  0  0  0  0  0  0  0  0
   58.5151   70.5479   11.5452 C   0  0  0  0  0  0  0  0  0  0  0  0
   57.7245   69.7344   10.7268 O   0  0  0  0  0  0  0  0  0  0  0  0
   59.6442   68.4947   12.1848 C   0  0  1  0  0  0  0  0  0  0  0  0
   59.7690   67.4990   11.2257 O   0  0  0  0  0  0  0  0  0  0  0  0
   60.7109   68.2475   13.2570 C   0  0  2  0  0  0  0  0  0  0  0  0
   60.4030   69.1848   14.2710 O   0  0  0  0  0  0  0  0  0  0  0  0
   62.0274   68.6594   12.6198 C   0  0  1  0  0  0  0  0  0  0  0  0
   62.0469   67.9525   10.9540 S   0  0  0  0  0  0  0  0  0  0  0  0
   63.5510   68.3462   10.0529 C   0  0  2  0  0  0  0  0  0  0  0  0
   63.6783   69.6978    9.7668 O   0  0  0  0  0  0  0  0  0  0  0  0
   64.9397   69.8579    9.1902 C   0  0  2  0  0  0  0  0  0  0  0  0
   65.4148   71.2904    9.2339 C   0  0  0  0  0  0  0  0  0  0  0  0
   66.6780   71.3056    8.6305 O   0  0  0  0  0  0  0  0  0  0  0  0
   64.7905   69.4210    7.7469 C   0  0  1  0  0  0  0  0  0  0  0  0
   65.9419   69.6723    7.0128 O   0  0  0  0  0  0  0  0  0  0  0  0
   64.4613   67.9674    7.7354 C   0  0  2  0  0  0  0  0  0  0  0  0
   63.8540   67.7093    6.4828 O   0  0  0  0  0  0  0  0  0  0  0  0
   63.5825   67.4814    8.8218 C   0  0  1  0  0  0  0  0  0  0  0  0
   63.9221   66.1860    9.2330 O   0  0  0  0  0  0  0  0  0  0  0  0
  1  2  1  0
  3  2  1  1
  3  4  1  0
  4  5  1  0
  5  6  1  1
  6  7  1  0
  5  8  1  0
  8  9  1  6
  8 10  1  0
 10 11  1  1
 10 12  1  0
 12 13  1  6
 14 13  1  6
 14 15  1  0
 15 16  1  0
 16 17  1  6
 17 18  1  0
 16 19  1  0
 19 20  1  6
 19 21  1  0
 21 22  1  6
 21 23  1  0
 23 24  1  1
 12  3  1  0
 23 14  1  0
M  END
>  <shape_align_shape_tanimoto>  (2) 
0.59348520984966535

>  <shape_align_color_tanimoto>  (2) 
0.08534747073394959

>  <metric>  (2) 
color

>  <metric_score>  (2) 
0.085

>  <template_pid>  (2) 
6MD6

>  <template_shape_score>  (2) 
0.593

>  <template_color_score>  (2) 
0.085

>  <template_combo_score>  (2) 
0.339

$$$$
6MD6_combo_pose
     RDKit          3D

 24 25  0  0  0  0  0  0  0  0999 V2000
   62.9115   71.1401    6.7833 C   0  0  0  0  0  0  0  0  0  0  0  0
   63.7238   70.2055    7.4016 O   0  0  0  0  0  0  0  0  0  0  0  0
   63.2943   69.8876    8.7033 C   0  0  2  0  0  0  0  0  0  0  0  0
   64.4009   70.1892    9.5034 O   0  0  0  0  0  0  0  0  0  0  0  0
   65.5810   69.7815    8.9337 C   0  0  2  0  0  0  0  0  0  0  0  0
   66.2755   71.0271    8.3795 C   0  0  0  0  0  0  0  0  0  0  0  0
   66.5303   71.9428    9.4012 O   0  0  0  0  0  0  0  0  0  0  0  0
   65.5271   68.7080    7.9235 C   0  0  1  0  0  0  0  0  0  0  0  0
   66.6089   67.8265    8.1504 O   0  0  0  0  0  0  0  0  0  0  0  0
   64.2961   67.8608    7.8735 C   0  0  2  0  0  0  0  0  0  0  0  0
   63.8243   67.8224    6.5629 O   0  0  0  0  0  0  0  0  0  0  0  0
   63.1834   68.3859    8.7656 C   0  0  1  0  0  0  0  0  0  0  0  0
   63.5009   67.7830   10.3935 S   0  0  0  0  0  0  0  0  0  0  0  0
   62.3619   68.1098   11.6902 C   0  0  2  0  0  0  0  0  0  0  0  0
   61.1040   67.5421   11.5029 O   0  0  0  0  0  0  0  0  0  0  0  0
   60.2117   67.8546   12.4911 C   0  0  2  0  0  0  0  0  0  0  0  0
   58.8283   67.3812   12.0242 C   0  0  0  0  0  0  0  0  0  0  0  0
   58.6023   68.0977   10.8358 O   0  0  0  0  0  0  0  0  0  0  0  0
   60.0670   69.3238   12.7576 C   0  0  1  0  0  0  0  0  0  0  0  0
   59.1421   69.5357   13.7612 O   0  0  0  0  0  0  0  0  0  0  0  0
   61.4297   69.8230   13.2488 C   0  0  2  0  0  0  0  0  0  0  0  0
   61.3934   71.1989   13.4223 O   0  0  0  0  0  0  0  0  0  0  0  0
   62.3667   69.5411   12.0788 C   0  0  1  0  0  0  0  0  0  0  0  0
   63.6728   69.8689   12.4653 O   0  0  0  0  0  0  0  0  0  0  0  0
  1  2  1  0
  3  2  1  6
  3  4  1  0
  4  5  1  0
  5  6  1  6
  6  7  1  0
  5  8  1  0
  8  9  1  1
  8 10  1  0
 10 11  1  6
 10 12  1  0
 12 13  1  1
 14 13  1  6
 14 15  1  0
 15 16  1  0
 16 17  1  6
 17 18  1  0
 16 19  1  0
 19 20  1  1
 19 21  1  0
 21 22  1  6
 21 23  1  0
 23 24  1  1
 12  3  1  0
 23 14  1  0
M  END
>  <shape_align_shape_tanimoto>  (3) 
0.61745845095520202

>  <shape_align_color_tanimoto>  (3) 
0.072635367793023958

>  <metric>  (3) 
combo

>  <metric_score>  (3) 
0.345

>  <template_pid>  (3) 
6MD6

>  <template_shape_score>  (3) 
0.617

>  <template_color_score>  (3) 
0.073

>  <template_combo_score>  (3) 
0.345

$$$$
