6HHG_shape_pose
     RDKit          3D

 46 51  0  0  0  0  0  0  0  0999 V2000
   15.3905  -12.4814    7.8515 C   0  0  0  0  0  0  0  0  0  0  0  0
   16.5376  -11.7198    7.2531 C   0  0  0  0  0  0  0  0  0  0  0  0
   17.6372  -11.4765    8.2520 C   0  0  0  0  0  0  0  0  0  0  0  0
   17.5220  -11.8994    9.4316 O   0  0  0  0  0  0  0  0  0  0  0  0
   18.7609  -10.7641    7.7742 N   0  0  0  0  0  0  0  0  0  0  0  0
   19.8988  -10.4322    8.5512 C   0  0  0  0  0  0  0  0  0  0  0  0
   19.9297   -9.2423    9.2474 C   0  0  0  0  0  0  0  0  0  0  0  0
   21.0294   -8.8684   10.0094 C   0  0  0  0  0  0  0  0  0  0  0  0
   20.9163   -7.6116   10.6826 N   0  0  0  0  0  0  0  0  0  0  0  0
   21.2821   -6.4139    9.9786 C   0  0  0  0  0  0  0  0  0  0  0  0
   21.6744   -6.5721    8.8051 O   0  0  0  0  0  0  0  0  0  0  0  0
   21.1796   -5.1599   10.6299 N   0  0  0  0  0  0  0  0  0  0  0  0
   21.4485   -3.8858   10.1107 C   0  0  1  0  0  0  0  0  0  0  0  0
   22.8277   -3.4598    9.8431 C   0  0  0  0  0  0  0  0  0  0  0  0
   22.7959   -1.9828    9.4210 C   0  0  0  0  0  0  0  0  0  0  0  0
   22.0397   -1.7607    8.2337 N   0  0  2  0  0  0  0  0  0  0  0  0
   21.2479   -0.5821    8.3693 C   0  0  0  0  0  0  0  0  0  0  0  0
   19.8569   -0.7528    8.7651 C   0  0  0  0  0  0  0  0  0  0  0  0
   18.8848   -0.9426    7.7743 C   0  0  0  0  0  0  0  0  0  0  0  0
   17.5472   -1.1157    8.1062 C   0  0  0  0  0  0  0  0  0  0  0  0
   17.1484   -1.1036    9.4169 C   0  0  0  0  0  0  0  0  0  0  0  0
   15.7799   -1.2842    9.8756 C   0  0  0  0  0  0  0  0  0  0  0  0
   15.5226   -2.4258   10.5538 N   0  0  0  0  0  0  0  0  0  0  0  0
   14.3118   -2.7172   11.0397 C   0  0  0  0  0  0  0  0  0  0  0  0
   13.3045   -1.8133   10.8337 C   0  0  0  0  0  0  0  0  0  0  0  0
   13.5130   -0.6480   10.1556 C   0  0  0  0  0  0  0  0  0  0  0  0
   14.7848   -0.3843    9.6678 C   0  0  0  0  0  0  0  0  0  0  0  0
   14.9590    0.8670    8.9514 C   0  0  0  0  0  0  0  0  0  0  0  0
   15.0240    0.9757    7.5824 C   0  0  0  0  0  0  0  0  0  0  0  0
   15.1962    2.2152    6.9629 C   0  0  0  0  0  0  0  0  0  0  0  0
   15.3040    3.3590    7.7247 C   0  0  0  0  0  0  0  0  0  0  0  0
   15.2383    3.2488    9.1008 C   0  0  0  0  0  0  0  0  0  0  0  0
   15.0686    2.0253    9.7130 C   0  0  0  0  0  0  0  0  0  0  0  0
   11.9771   -2.1059   11.3583 C   0  0  0  0  0  0  0  0  0  0  0  0
   11.0556   -1.2872   11.1745 O   0  0  0  0  0  0  0  0  0  0  0  0
   11.8174   -3.3300   12.0589 N   0  0  0  0  0  0  0  0  0  0  0  0
   12.7799   -4.1475   12.2292 C   0  0  0  0  0  0  0  0  0  0  0  0
   14.1577   -3.9986   11.7656 C   0  0  0  0  0  0  0  0  0  0  0  0
   18.1034   -0.9143   10.4233 C   0  0  0  0  0  0  0  0  0  0  0  0
   19.4378   -0.7414   10.1036 C   0  0  0  0  0  0  0  0  0  0  0  0
   21.4023   -2.9352    7.7743 C   0  0  0  0  0  0  0  0  0  0  0  0
   20.6862   -3.7674    8.7774 C   0  0  0  0  0  0  0  0  0  0  0  0
   22.1452   -9.6712   10.1065 C   0  0  0  0  0  0  0  0  0  0  0  0
   22.1180  -10.8728    9.4063 C   0  0  0  0  0  0  0  0  0  0  0  0
   21.0189  -11.2496    8.6426 C   0  0  0  0  0  0  0  0  0  0  0  0
   20.9706  -12.7594    7.7560 Cl  0  0  0  0  0  0  0  0  0  0  0  0
  1  2  1  0
  2  3  1  0
  3  4  2  0
  3  5  1  0
  5  6  1  0
  6  7  2  0
  7  8  1  0
  8  9  1  0
  9 10  1  0
 10 11  2  0
 10 12  1  0
 13 12  1  6
 13 14  1  0
 14 15  1  0
 15 16  1  0
 16 17  1  1
 17 18  1  0
 18 19  2  0
 19 20  1  0
 20 21  2  0
 21 22  1  0
 22 23  2  0
 23 24  1  0
 24 25  2  0
 25 26  1  0
 26 27  2  0
 27 28  1  0
 28 29  2  0
 29 30  1  0
 30 31  2  0
 31 32  1  0
 32 33  2  0
 25 34  1  0
 34 35  2  0
 34 36  1  0
 36 37  2  0
 37 38  1  0
 21 39  1  0
 39 40  2  0
 16 41  1  0
 41 42  1  0
  8 43  2  0
 43 44  1  0
 44 45  2  0
 45 46  1  0
 45  6  1  0
 42 13  1  0
 40 18  1  0
 27 22  1  0
 33 28  1  0
 38 24  1  0
M  CHG  1  16   1
M  END
>  <shape_align_shape_tanimoto>  (1) 
0.41519477767297891

>  <shape_align_color_tanimoto>  (1) 
0.088873271960402858

>  <metric>  (1) 
shape

>  <metric_score>  (1) 
0.415

>  <template_pid>  (1) 
6HHG

>  <template_shape_score>  (1) 
0.415

>  <template_color_score>  (1) 
0.089

>  <template_combo_score>  (1) 
0.252

$$$$
6HHG_color_pose
     RDKit          3D

 46 51  0  0  0  0  0  0  0  0999 V2000
   29.0109   -2.3283   11.8574 C   0  0  0  0  0  0  0  0  0  0  0  0
   29.2398   -1.6589   10.5205 C   0  0  0  0  0  0  0  0  0  0  0  0
   28.1248   -1.8772    9.5922 C   0  0  0  0  0  0  0  0  0  0  0  0
   27.1145   -2.5869    9.9209 O   0  0  0  0  0  0  0  0  0  0  0  0
   28.0944   -1.3226    8.2866 N   0  0  0  0  0  0  0  0  0  0  0  0
   26.9234   -1.6380    7.5037 C   0  0  0  0  0  0  0  0  0  0  0  0
   25.7969   -0.8433    7.5470 C   0  0  0  0  0  0  0  0  0  0  0  0
   24.7053   -1.2201    6.7690 C   0  0  0  0  0  0  0  0  0  0  0  0
   23.5636   -0.3627    6.8625 N   0  0  0  0  0  0  0  0  0  0  0  0
   23.3151    0.7351    6.0372 C   0  0  0  0  0  0  0  0  0  0  0  0
   24.1042    1.0299    5.1362 O   0  0  0  0  0  0  0  0  0  0  0  0
   22.1417    1.5040    6.2538 N   0  0  0  0  0  0  0  0  0  0  0  0
   21.7508    2.6489    5.4971 C   0  0  1  0  0  0  0  0  0  0  0  0
   20.4520    2.3181    4.7937 C   0  0  0  0  0  0  0  0  0  0  0  0
   19.3059    2.3101    5.8058 C   0  0  0  0  0  0  0  0  0  0  0  0
   19.4619    3.3679    6.7722 N   0  0  2  0  0  0  0  0  0  0  0  0
   18.2207    3.8283    7.3544 C   0  0  0  0  0  0  0  0  0  0  0  0
   17.4193    2.7340    7.9034 C   0  0  0  0  0  0  0  0  0  0  0  0
   16.4274    2.0623    7.1845 C   0  0  0  0  0  0  0  0  0  0  0  0
   15.7164    1.0358    7.7532 C   0  0  0  0  0  0  0  0  0  0  0  0
   15.9560    0.6321    9.0526 C   0  0  0  0  0  0  0  0  0  0  0  0
   15.2423   -0.4386    9.7149 C   0  0  0  0  0  0  0  0  0  0  0  0
   13.9346   -0.3973   10.0243 N   0  0  0  0  0  0  0  0  0  0  0  0
   13.2831   -1.4043   10.6491 C   0  0  0  0  0  0  0  0  0  0  0  0
   14.0156   -2.5205   10.9763 C   0  0  0  0  0  0  0  0  0  0  0  0
   15.3643   -2.6564   10.6995 C   0  0  0  0  0  0  0  0  0  0  0  0
   15.9726   -1.5761   10.0521 C   0  0  0  0  0  0  0  0  0  0  0  0
   17.3962   -1.6671    9.7356 C   0  0  0  0  0  0  0  0  0  0  0  0
   17.8010   -1.6237    8.3953 C   0  0  0  0  0  0  0  0  0  0  0  0
   19.1285   -1.7048    8.0382 C   0  0  0  0  0  0  0  0  0  0  0  0
   20.0453   -1.8307    9.0553 C   0  0  0  0  0  0  0  0  0  0  0  0
   19.7150   -1.8796   10.3910 C   0  0  0  0  0  0  0  0  0  0  0  0
   18.3680   -1.7955   10.7237 C   0  0  0  0  0  0  0  0  0  0  0  0
   13.3549   -3.6210   11.6487 C   0  0  0  0  0  0  0  0  0  0  0  0
   13.9340   -4.6867   11.9915 O   0  0  0  0  0  0  0  0  0  0  0  0
   11.9704   -3.4822   11.9351 N   0  0  0  0  0  0  0  0  0  0  0  0
   11.3049   -2.4349   11.6229 C   0  0  0  0  0  0  0  0  0  0  0  0
   11.8390   -1.2495   10.9437 C   0  0  0  0  0  0  0  0  0  0  0  0
   16.9408    1.2914    9.7824 C   0  0  0  0  0  0  0  0  0  0  0  0
   17.6700    2.3387    9.2101 C   0  0  0  0  0  0  0  0  0  0  0  0
   20.2337    4.4255    6.1463 C   0  0  0  0  0  0  0  0  0  0  0  0
   21.6754    3.9476    6.1251 C   0  0  0  0  0  0  0  0  0  0  0  0
   24.7216   -2.3457    5.9714 C   0  0  0  0  0  0  0  0  0  0  0  0
   25.8652   -3.1134    5.9551 C   0  0  0  0  0  0  0  0  0  0  0  0
   26.9929   -2.7829    6.7170 C   0  0  0  0  0  0  0  0  0  0  0  0
   28.4397   -3.7709    6.6841 Cl  0  0  0  0  0  0  0  0  0  0  0  0
  1  2  1  0
  2  3  1  0
  3  4  2  0
  3  5  1  0
  5  6  1  0
  6  7  2  0
  7  8  1  0
  8  9  1  0
  9 10  1  0
 10 11  2  0
 10 12  1  0
 13 12  1  1
 13 14  1  0
 14 15  1  0
 15 16  1  0
 16 17  1  6
 17 18  1  0
 18 19  2  0
 19 20  1  0
 20 21  2  0
 21 22  1  0
 22 23  2  0
 23 24  1  0
 24 25  2  0
 25 26  1  0
 26 27  2  0
 27 28  1  0
 28 29  2  0
 29 30  1  0
 30 31  2  0
 31 32  1  0
 32 33  2  0
 25 34  1  0
 34 35  2  0
 34 36  1  0
 36 37  2  0
 37 38  1  0
 21 39  1  0
 39 40  2  0
 16 41  1  0
 41 42  1  0
  8 43  2  0
 43 44  1  0
 44 45  2  0
 45 46  1  0
 45  6  1  0
 42 13  1  0
 40 18  1  0
 27 22  1  0
 33 28  1  0
 38 24  1  0
M  CHG  1  16   1
M  END
>  <shape_align_shape_tanimoto>  (2) 
0.31703497267544561

>  <shape_align_color_tanimoto>  (2) 
0.11404560218756407

>  <metric>  (2) 
color

>  <metric_score>  (2) 
0.114

>  <template_pid>  (2) 
6HHG

>  <template_shape_score>  (2) 
0.317

>  <template_color_score>  (2) 
0.114

>  <template_combo_score>  (2) 
0.216

$$$$
6HHG_combo_pose
     RDKit          3D

 46 51  0  0  0  0  0  0  0  0999 V2000
   15.3905  -12.4814    7.8515 C   0  0  0  0  0  0  0  0  0  0  0  0
   16.5376  -11.7198    7.2531 C   0  0  0  0  0  0  0  0  0  0  0  0
   17.6372  -11.4765    8.2520 C   0  0  0  0  0  0  0  0  0  0  0  0
   17.5220  -11.8994    9.4316 O   0  0  0  0  0  0  0  0  0  0  0  0
   18.7609  -10.7641    7.7742 N   0  0  0  0  0  0  0  0  0  0  0  0
   19.8988  -10.4322    8.5512 C   0  0  0  0  0  0  0  0  0  0  0  0
   19.9297   -9.2423    9.2474 C   0  0  0  0  0  0  0  0  0  0  0  0
   21.0294   -8.8684   10.0094 C   0  0  0  0  0  0  0  0  0  0  0  0
   20.9163   -7.6116   10.6826 N   0  0  0  0  0  0  0  0  0  0  0  0
   21.2821   -6.4139    9.9786 C   0  0  0  0  0  0  0  0  0  0  0  0
   21.6744   -6.5721    8.8051 O   0  0  0  0  0  0  0  0  0  0  0  0
   21.1796   -5.1599   10.6299 N   0  0  0  0  0  0  0  0  0  0  0  0
   21.4485   -3.8858   10.1107 C   0  0  1  0  0  0  0  0  0  0  0  0
   22.8277   -3.4598    9.8431 C   0  0  0  0  0  0  0  0  0  0  0  0
   22.7959   -1.9828    9.4210 C   0  0  0  0  0  0  0  0  0  0  0  0
   22.0397   -1.7607    8.2337 N   0  0  2  0  0  0  0  0  0  0  0  0
   21.2479   -0.5821    8.3693 C   0  0  0  0  0  0  0  0  0  0  0  0
   19.8569   -0.7528    8.7651 C   0  0  0  0  0  0  0  0  0  0  0  0
   18.8848   -0.9426    7.7743 C   0  0  0  0  0  0  0  0  0  0  0  0
   17.5472   -1.1157    8.1062 C   0  0  0  0  0  0  0  0  0  0  0  0
   17.1484   -1.1036    9.4169 C   0  0  0  0  0  0  0  0  0  0  0  0
   15.7799   -1.2842    9.8756 C   0  0  0  0  0  0  0  0  0  0  0  0
   15.5226   -2.4258   10.5538 N   0  0  0  0  0  0  0  0  0  0  0  0
   14.3118   -2.7172   11.0397 C   0  0  0  0  0  0  0  0  0  0  0  0
   13.3045   -1.8133   10.8337 C   0  0  0  0  0  0  0  0  0  0  0  0
   13.5130   -0.6480   10.1556 C   0  0  0  0  0  0  0  0  0  0  0  0
   14.7848   -0.3843    9.6678 C   0  0  0  0  0  0  0  0  0  0  0  0
   14.9590    0.8670    8.9514 C   0  0  0  0  0  0  0  0  0  0  0  0
   15.0240    0.9757    7.5824 C   0  0  0  0  0  0  0  0  0  0  0  0
   15.1962    2.2152    6.9629 C   0  0  0  0  0  0  0  0  0  0  0  0
   15.3040    3.3590    7.7247 C   0  0  0  0  0  0  0  0  0  0  0  0
   15.2383    3.2488    9.1008 C   0  0  0  0  0  0  0  0  0  0  0  0
   15.0686    2.0253    9.7130 C   0  0  0  0  0  0  0  0  0  0  0  0
   11.9771   -2.1059   11.3583 C   0  0  0  0  0  0  0  0  0  0  0  0
   11.0556   -1.2872   11.1745 O   0  0  0  0  0  0  0  0  0  0  0  0
   11.8174   -3.3300   12.0589 N   0  0  0  0  0  0  0  0  0  0  0  0
   12.7799   -4.1475   12.2292 C   0  0  0  0  0  0  0  0  0  0  0  0
   14.1577   -3.9986   11.7656 C   0  0  0  0  0  0  0  0  0  0  0  0
   18.1034   -0.9143   10.4233 C   0  0  0  0  0  0  0  0  0  0  0  0
   19.4378   -0.7414   10.1036 C   0  0  0  0  0  0  0  0  0  0  0  0
   21.4023   -2.9352    7.7743 C   0  0  0  0  0  0  0  0  0  0  0  0
   20.6862   -3.7674    8.7774 C   0  0  0  0  0  0  0  0  0  0  0  0
   22.1452   -9.6712   10.1065 C   0  0  0  0  0  0  0  0  0  0  0  0
   22.1180  -10.8728    9.4063 C   0  0  0  0  0  0  0  0  0  0  0  0
   21.0189  -11.2496    8.6426 C   0  0  0  0  0  0  0  0  0  0  0  0
   20.9706  -12.7594    7.7560 Cl  0  0  0  0  0  0  0  0  0  0  0  0
  1  2  1  0
  2  3  1  0
  3  4  2  0
  3  5  1  0
  5  6  1  0
  6  7  2  0
  7  8  1  0
  8  9  1  0
  9 10  1  0
 10 11  2  0
 10 12  1  0
 13 12  1  6
 13 14  1  0
 14 15  1  0
 15 16  1  0
 16 17  1  1
 17 18  1  0
 18 19  2  0
 19 20  1  0
 20 21  2  0
 21 22  1  0
 22 23  2  0
 23 24  1  0
 24 25  2  0
 25 26  1  0
 26 27  2  0
 27 28  1  0
 28 29  2  0
 29 30  1  0
 30 31  2  0
 31 32  1  0
 32 33  2  0
 25 34  1  0
 34 35  2  0
 34 36  1  0
 36 37  2  0
 37 38  1  0
 21 39  1  0
 39 40  2  0
 16 41  1  0
 41 42  1  0
  8 43  2  0
 43 44  1  0
 44 45  2  0
 45 46  1  0
 45  6  1  0
 42 13  1  0
 40 18  1  0
 27 22  1  0
 33 28  1  0
 38 24  1  0
M  CHG  1  16   1
M  END
>  <shape_align_shape_tanimoto>  (3) 
0.41519477767297891

>  <shape_align_color_tanimoto>  (3) 
0.088873271960402858

>  <metric>  (3) 
combo

>  <metric_score>  (3) 
0.252

>  <template_pid>  (3) 
6HHG

>  <template_shape_score>  (3) 
0.415

>  <template_color_score>  (3) 
0.089

>  <template_combo_score>  (3) 
0.252

$$$$
