4L53_shape_pose
     RDKit          3D

 32 37  0  0  0  0  0  0  0  0999 V2000
   -5.5394  -41.9855    4.7449 N   0  0  0  0  0  0  0  0  0  0  0  0
   -5.1073  -40.9186    5.5790 C   0  0  0  0  0  0  0  0  0  0  0  0
   -3.8350  -40.8219    6.0404 N   0  0  0  0  0  0  0  0  0  0  0  0
   -3.4105  -39.8165    6.8327 C   0  0  0  0  0  0  0  0  0  0  0  0
   -4.3341  -38.8273    7.1930 C   0  0  0  0  0  0  0  0  0  0  0  0
   -3.8398  -37.7917    8.0810 C   0  0  0  0  0  0  0  0  0  0  0  0
   -4.2748  -37.3891    9.3233 C   0  0  0  0  0  0  0  0  0  0  0  0
   -3.4830  -36.3694    9.7124 N   0  0  0  0  0  0  0  0  0  0  0  0
   -2.5769  -36.1203    8.7711 N   0  0  0  0  0  0  0  0  0  0  0  0
   -1.5791  -35.0745    8.9008 C   0  0  1  0  0  0  0  0  0  0  0  0
   -2.1673  -33.7886    9.4152 C   0  0  0  0  0  0  0  0  0  0  0  0
   -1.1696  -32.6915    9.2276 C   0  0  0  0  0  0  0  0  0  0  0  0
    0.2527  -33.1900    9.1257 C   0  0  2  0  0  0  0  0  0  0  0  0
    0.6633  -33.3754    7.8083 O   0  0  0  0  0  0  0  0  0  0  0  0
    0.5290  -34.3953    9.9756 C   0  0  0  0  0  0  0  0  0  0  0  0
   -0.4821  -35.4962    9.8256 C   0  0  0  0  0  0  0  0  0  0  0  0
   -2.7552  -36.9807    7.7303 C   0  0  0  0  0  0  0  0  0  0  0  0
   -5.6313  -38.8900    6.7447 C   0  0  0  0  0  0  0  0  0  0  0  0
   -6.7296  -38.0958    6.9149 C   0  0  0  0  0  0  0  0  0  0  0  0
   -6.7688  -36.6327    7.8284 Cl  0  0  0  0  0  0  0  0  0  0  0  0
   -7.7615  -38.6650    6.2179 C   0  0  0  0  0  0  0  0  0  0  0  0
   -9.1467  -38.2480    6.0533 C   0  0  0  0  0  0  0  0  0  0  0  0
   -9.6679  -37.1230    6.6271 C   0  0  0  0  0  0  0  0  0  0  0  0
  -11.0015  -36.8459    6.3862 C   0  0  0  0  0  0  0  0  0  0  0  0
  -11.8257  -37.6100    5.6228 C   0  0  0  0  0  0  0  0  0  0  0  0
  -11.3044  -38.7577    5.0341 C   0  0  0  0  0  0  0  0  0  0  0  0
  -11.8926  -39.6458    4.2640 N   0  0  0  0  0  0  0  0  0  0  0  0
  -11.5166  -40.5852    3.7660 N   0  0  0  0  0  0  0  0  0  0  0  0
   -9.7217  -40.5279    4.3730 S   0  0  0  0  0  0  0  0  0  0  0  0
   -9.9685  -39.0517    5.2646 C   0  0  0  0  0  0  0  0  0  0  0  0
   -7.2680  -39.7453    5.6682 O   0  0  0  0  0  0  0  0  0  0  0  0
   -6.0102  -39.9364    5.9398 C   0  0  0  0  0  0  0  0  0  0  0  0
  1  2  1  0
  2  3  2  0
  3  4  1  0
  4  5  2  0
  5  6  1  0
  6  7  1  0
  7  8  2  0
  8  9  1  0
 10  9  1  1
 10 11  1  0
 11 12  1  0
 12 13  1  0
 13 14  1  6
 13 15  1  0
 15 16  1  0
  9 17  1  0
  5 18  1  0
 18 19  1  0
 19 20  1  0
 19 21  2  0
 21 22  1  0
 22 23  2  0
 23 24  1  0
 24 25  2  0
 25 26  1  0
 26 27  1  0
 27 28  2  0
 28 29  1  0
 29 30  1  0
 21 31  1  0
 31 32  1  0
 32  2  1  0
 17  6  2  0
 32 18  2  0
 16 10  1  0
 30 22  1  0
 30 26  2  0
M  END
>  <shape_align_shape_tanimoto>  (1) 
0.67239882298398934

>  <shape_align_color_tanimoto>  (1) 
0.069959128840355711

>  <metric>  (1) 
shape

>  <metric_score>  (1) 
0.672

>  <template_pid>  (1) 
4L53

>  <template_shape_score>  (1) 
0.672

>  <template_color_score>  (1) 
0.070

>  <template_combo_score>  (1) 
0.371

$$$$
4L53_color_pose
     RDKit          3D

 32 37  0  0  0  0  0  0  0  0999 V2000
  -10.2390  -38.8450    5.1072 N   0  0  0  0  0  0  0  0  0  0  0  0
   -9.1485  -38.4660    5.9485 C   0  0  0  0  0  0  0  0  0  0  0  0
   -9.2802  -37.5465    6.9311 N   0  0  0  0  0  0  0  0  0  0  0  0
   -8.2617  -37.1726    7.7381 C   0  0  0  0  0  0  0  0  0  0  0  0
   -7.0295  -37.7773    7.5269 C   0  0  0  0  0  0  0  0  0  0  0  0
   -5.9249  -37.3478    8.3627 C   0  0  0  0  0  0  0  0  0  0  0  0
   -5.9283  -37.4045    9.7393 C   0  0  0  0  0  0  0  0  0  0  0  0
   -4.7433  -36.8911   10.1809 N   0  0  0  0  0  0  0  0  0  0  0  0
   -4.0121  -36.5215    9.1430 N   0  0  0  0  0  0  0  0  0  0  0  0
   -2.6701  -35.9218    9.1829 C   0  0  1  0  0  0  0  0  0  0  0  0
   -2.0621  -35.9801    7.7938 C   0  0  0  0  0  0  0  0  0  0  0  0
   -0.5892  -35.7876    7.8984 C   0  0  0  0  0  0  0  0  0  0  0  0
   -0.3348  -34.6115    8.8108 C   0  0  2  0  0  0  0  0  0  0  0  0
    0.2799  -34.9702    9.9936 O   0  0  0  0  0  0  0  0  0  0  0  0
   -1.5501  -33.7586    9.0100 C   0  0  0  0  0  0  0  0  0  0  0  0
   -2.7372  -34.4710    9.5681 C   0  0  0  0  0  0  0  0  0  0  0  0
   -4.7104  -36.7892    8.0248 C   0  0  0  0  0  0  0  0  0  0  0  0
   -6.8538  -38.7155    6.5416 C   0  0  0  0  0  0  0  0  0  0  0  0
   -5.8024  -39.4951    6.0755 C   0  0  0  0  0  0  0  0  0  0  0  0
   -4.2315  -39.4737    6.7764 Cl  0  0  0  0  0  0  0  0  0  0  0  0
   -6.2438  -40.2609    5.0475 C   0  0  0  0  0  0  0  0  0  0  0  0
   -5.6437  -41.2436    4.1793 C   0  0  0  0  0  0  0  0  0  0  0  0
   -6.5186  -41.9245    3.3153 C   0  0  0  0  0  0  0  0  0  0  0  0
   -6.0066  -42.8760    2.4302 C   0  0  0  0  0  0  0  0  0  0  0  0
   -4.6763  -43.1884    2.3550 C   0  0  0  0  0  0  0  0  0  0  0  0
   -3.8032  -42.5084    3.2169 C   0  0  0  0  0  0  0  0  0  0  0  0
   -2.4995  -42.6404    3.3087 N   0  0  0  0  0  0  0  0  0  0  0  0
   -1.7448  -42.1012    3.9917 N   0  0  0  0  0  0  0  0  0  0  0  0
   -2.9554  -41.0025    4.9053 S   0  0  0  0  0  0  0  0  0  0  0  0
   -4.3240  -41.5683    4.0889 C   0  0  0  0  0  0  0  0  0  0  0  0
   -7.5348  -39.9392    4.9127 O   0  0  0  0  0  0  0  0  0  0  0  0
   -7.9197  -39.0477    5.7635 C   0  0  0  0  0  0  0  0  0  0  0  0
  1  2  1  0
  2  3  2  0
  3  4  1  0
  4  5  2  0
  5  6  1  0
  6  7  1  0
  7  8  2  0
  8  9  1  0
 10  9  1  6
 10 11  1  0
 11 12  1  0
 12 13  1  0
 13 14  1  1
 13 15  1  0
 15 16  1  0
  9 17  1  0
  5 18  1  0
 18 19  1  0
 19 20  1  0
 19 21  2  0
 21 22  1  0
 22 23  2  0
 23 24  1  0
 24 25  2  0
 25 26  1  0
 26 27  1  0
 27 28  2  0
 28 29  1  0
 29 30  1  0
 21 31  1  0
 31 32  1  0
 32  2  1  0
 17  6  2  0
 32 18  2  0
 16 10  1  0
 30 22  1  0
 30 26  2  0
M  END
>  <shape_align_shape_tanimoto>  (2) 
0.62315188038403946

>  <shape_align_color_tanimoto>  (2) 
0.14464698837424611

>  <metric>  (2) 
color

>  <metric_score>  (2) 
0.145

>  <template_pid>  (2) 
4L53

>  <template_shape_score>  (2) 
0.623

>  <template_color_score>  (2) 
0.145

>  <template_combo_score>  (2) 
0.384

$$$$
4L53_combo_pose
     RDKit          3D

 32 37  0  0  0  0  0  0  0  0999 V2000
  -10.1272  -38.7520    5.3859 N   0  0  0  0  0  0  0  0  0  0  0  0
   -8.9960  -38.3699    6.1589 C   0  0  0  0  0  0  0  0  0  0  0  0
   -9.0558  -37.4317    7.1240 N   0  0  0  0  0  0  0  0  0  0  0  0
   -8.0021  -37.0484    7.8719 C   0  0  0  0  0  0  0  0  0  0  0  0
   -6.7905  -37.6809    7.6047 C   0  0  0  0  0  0  0  0  0  0  0  0
   -5.6393  -37.2454    8.3757 C   0  0  0  0  0  0  0  0  0  0  0  0
   -5.5458  -37.2556    9.7724 C   0  0  0  0  0  0  0  0  0  0  0  0
   -4.3493  -36.7545   10.1404 N   0  0  0  0  0  0  0  0  0  0  0  0
   -3.6880  -36.4303    9.0407 N   0  0  0  0  0  0  0  0  0  0  0  0
   -2.3592  -35.8578    9.0007 C   0  0  1  0  0  0  0  0  0  0  0  0
   -2.3634  -34.6225    8.1263 C   0  0  0  0  0  0  0  0  0  0  0  0
   -0.9382  -34.1718    7.9109 C   0  0  0  0  0  0  0  0  0  0  0  0
   -0.1166  -34.0817    9.1464 C   0  0  2  0  0  0  0  0  0  0  0  0
    1.2239  -34.3018    8.7554 O   0  0  0  0  0  0  0  0  0  0  0  0
   -0.4108  -35.0804   10.2089 C   0  0  0  0  0  0  0  0  0  0  0  0
   -1.8681  -35.4507   10.3469 C   0  0  0  0  0  0  0  0  0  0  0  0
   -4.4371  -36.7130    7.9618 C   0  0  0  0  0  0  0  0  0  0  0  0
   -6.6758  -38.6431    6.6339 C   0  0  0  0  0  0  0  0  0  0  0  0
   -5.6565  -39.4462    6.1347 C   0  0  0  0  0  0  0  0  0  0  0  0
   -4.0576  -39.4380    6.7647 Cl  0  0  0  0  0  0  0  0  0  0  0  0
   -6.1661  -40.2313    5.1425 C   0  0  0  0  0  0  0  0  0  0  0  0
   -5.6215  -41.2430    4.2676 C   0  0  0  0  0  0  0  0  0  0  0  0
   -6.5722  -41.9931    3.5399 C   0  0  0  0  0  0  0  0  0  0  0  0
   -6.1245  -42.9559    2.6602 C   0  0  0  0  0  0  0  0  0  0  0  0
   -4.8182  -43.2237    2.4534 C   0  0  0  0  0  0  0  0  0  0  0  0
   -3.8362  -42.4934    3.1623 C   0  0  0  0  0  0  0  0  0  0  0  0
   -2.5658  -42.6015    3.0806 N   0  0  0  0  0  0  0  0  0  0  0  0
   -1.6977  -41.8946    3.7412 N   0  0  0  0  0  0  0  0  0  0  0  0
   -2.8106  -40.7900    4.7399 S   0  0  0  0  0  0  0  0  0  0  0  0
   -4.3484  -41.5240    4.0465 C   0  0  0  0  0  0  0  0  0  0  0  0
   -7.4525  -39.8858    5.0787 O   0  0  0  0  0  0  0  0  0  0  0  0
   -7.7865  -38.9824    5.9136 C   0  0  0  0  0  0  0  0  0  0  0  0
  1  2  1  0
  2  3  2  0
  3  4  1  0
  4  5  2  0
  5  6  1  0
  6  7  1  0
  7  8  2  0
  8  9  1  0
 10  9  1  1
 10 11  1  0
 11 12  1  0
 12 13  1  0
 13 14  1  6
 13 15  1  0
 15 16  1  0
  9 17  1  0
  5 18  1  0
 18 19  1  0
 19 20  1  0
 19 21  2  0
 21 22  1  0
 22 23  2  0
 23 24  1  0
 24 25  2  0
 25 26  1  0
 26 27  1  0
 27 28  2  0
 28 29  1  0
 29 30  1  0
 21 31  1  0
 31 32  1  0
 32  2  1  0
 17  6  2  0
 32 18  2  0
 16 10  1  0
 30 22  1  0
 30 26  2  0
M  END
>  <shape_align_shape_tanimoto>  (3) 
0.66628273101945579

>  <shape_align_color_tanimoto>  (3) 
0.12038790693151992

>  <metric>  (3) 
combo

>  <metric_score>  (3) 
0.393

>  <template_pid>  (3) 
4L53

>  <template_shape_score>  (3) 
0.666

>  <template_color_score>  (3) 
0.120

>  <template_combo_score>  (3) 
0.393

$$$$
