4GLR_shape_pose
     RDKit          3D

 81 82  0  0  0  0  0  0  0  0999 V2000
  -28.5711   38.4784  -15.6955 C   0  0  0  0  0  0  0  0  0  0  0  0
  -27.5116   37.6353  -15.0695 C   0  0  0  0  0  0  0  0  0  0  0  0
  -27.0694   36.5786  -16.0239 C   0  0  0  0  0  0  0  0  0  0  0  0
  -26.3371   38.5071  -14.5711 C   0  0  2  0  0  0  0  0  0  0  0  0
  -26.9079   39.3977  -13.6213 N   0  0  0  0  0  0  0  0  0  0  0  0
  -26.3433   39.4168  -12.3131 C   0  0  0  0  0  0  0  0  0  0  0  0
  -25.3393   38.6336  -12.1464 O   0  0  0  0  0  0  0  0  0  0  0  0
  -26.7651   40.2002  -11.1760 C   0  0  2  0  0  0  0  0  0  0  0  0
  -26.9019   39.3096   -9.9064 C   0  0  0  0  0  0  0  0  0  0  0  0
  -27.9893   40.9341  -11.2617 N   0  0  0  0  0  0  0  0  0  0  0  0
  -28.1677   42.2550  -10.8494 C   0  0  0  0  0  0  0  0  0  0  0  0
  -27.1379   42.8491  -10.3657 O   0  0  0  0  0  0  0  0  0  0  0  0
  -29.4059   43.0586  -10.8917 C   0  0  1  0  0  0  0  0  0  0  0  0
  -29.1693   44.3318  -10.1597 N   0  0  0  0  0  0  0  0  0  0  0  0
  -29.6553   44.4049   -8.8227 C   0  0  0  0  0  0  0  0  0  0  0  0
  -30.2702   43.4169   -8.2845 O   0  0  0  0  0  0  0  0  0  0  0  0
  -29.4947   45.5987   -7.9584 C   0  0  1  0  0  0  0  0  0  0  0  0
  -29.9343   45.2864   -6.6445 N   0  0  0  0  0  0  0  0  0  0  0  0
  -28.1512   46.2336   -8.0864 C   0  0  0  0  0  0  0  0  0  0  0  0
  -27.9034   47.4263   -7.2349 C   0  0  0  0  0  0  0  0  0  0  0  0
  -28.8561   48.5755   -7.4652 C   0  0  0  0  0  0  0  0  0  0  0  0
  -28.4312   49.7069   -6.5145 C   0  0  0  0  0  0  0  0  0  0  0  0
  -27.0715   50.1229   -6.8279 N   0  0  0  0  0  0  0  0  0  0  0  0
  -29.9830   43.3487  -12.2317 C   0  0  0  0  0  0  0  0  0  0  0  0
  -30.3526   42.0917  -12.9703 C   0  0  0  0  0  0  0  0  0  0  0  0
  -31.3052   44.0959  -11.9674 C   0  0  0  0  0  0  0  0  0  0  0  0
  -25.5144   39.0032  -15.6491 C   0  0  0  0  0  0  0  0  0  0  0  0
  -24.9903   38.0888  -16.4085 O   0  0  0  0  0  0  0  0  0  0  0  0
  -25.1873   40.3215  -16.0078 N   0  0  0  0  0  0  0  0  0  0  0  0
  -24.3041   40.5023  -17.1451 C   0  0  2  0  0  0  0  0  0  0  0  0
  -23.1638   41.3971  -16.9116 C   0  0  0  0  0  0  0  0  0  0  0  0
  -22.2332   41.3548  -17.7966 O   0  0  0  0  0  0  0  0  0  0  0  0
  -22.9914   42.2840  -15.8235 N   0  0  0  0  0  0  0  0  0  0  0  0
  -21.8185   43.0482  -15.7146 C   0  0  1  0  0  0  0  0  0  0  0  0
  -21.7558   44.4845  -15.5284 C   0  0  0  0  0  0  0  0  0  0  0  0
  -22.2533   45.5175  -16.4175 C   0  0  0  0  0  0  0  0  0  0  0  0
  -23.6590   45.7127  -16.7389 C   0  0  0  0  0  0  0  0  0  0  0  0
  -24.4386   44.7562  -17.4306 N   0  0  0  0  0  0  0  0  0  0  0  0
  -25.8122   45.1335  -17.6775 C   0  0  0  0  0  0  0  0  0  0  0  0
  -26.1670   46.3647  -17.4635 N   0  0  0  0  0  0  0  0  0  0  0  0
  -26.7992   44.2517  -18.1448 N   0  0  0  0  0  0  0  0  0  0  0  0
  -20.9683   42.4838  -14.5386 C   0  0  0  0  0  0  0  0  0  0  0  0
  -19.9004   43.0301  -14.2496 O   0  0  0  0  0  0  0  0  0  0  0  0
  -21.4054   41.3751  -13.8129 N   0  0  0  0  0  0  0  0  0  0  0  0
  -20.6511   40.8791  -12.7163 C   0  0  2  0  0  0  0  0  0  0  0  0
  -19.7044   41.7696  -12.0512 C   0  0  0  0  0  0  0  0  0  0  0  0
  -18.5335   41.1752  -11.8323 O   0  0  0  0  0  0  0  0  0  0  0  0
  -19.7165   43.0719  -11.5831 N   0  0  0  0  0  0  0  0  0  0  0  0
  -18.3724   43.5995  -11.0455 C   0  0  0  0  0  0  0  0  0  0  0  0
  -18.3538   44.8877  -11.8497 C   0  0  0  0  0  0  0  0  0  0  0  0
  -19.8223   45.3228  -11.9763 C   0  0  0  0  0  0  0  0  0  0  0  0
  -20.5427   44.1966  -11.2943 C   0  0  1  0  0  0  0  0  0  0  0  0
  -21.9755   44.1337  -11.4117 C   0  0  0  0  0  0  0  0  0  0  0  0
  -22.6877   43.2728  -11.9751 O   0  0  0  0  0  0  0  0  0  0  0  0
  -22.7523   45.2070  -10.7862 N   0  0  0  0  0  0  0  0  0  0  0  0
  -22.2365   46.3653  -10.0923 C   0  0  0  0  0  0  0  0  0  0  0  0
  -23.3951   46.8357   -9.2053 C   0  0  0  0  0  0  0  0  0  0  0  0
  -24.3897   45.7012   -9.2812 C   0  0  0  0  0  0  0  0  0  0  0  0
  -24.1926   45.2050  -10.7163 C   0  0  1  0  0  0  0  0  0  0  0  0
  -24.9643   46.0265  -11.6090 C   0  0  0  0  0  0  0  0  0  0  0  0
  -26.2117   45.7090  -11.7539 O   0  0  0  0  0  0  0  0  0  0  0  0
  -24.5654   47.1498  -12.3643 N   0  0  0  0  0  0  0  0  0  0  0  0
  -25.5842   47.7937  -13.2026 C   0  0  1  0  0  0  0  0  0  0  0  0
  -26.1707   48.9794  -12.4547 C   0  0  0  0  0  0  0  0  0  0  0  0
  -27.2133   49.6358  -13.3052 C   0  0  0  0  0  0  0  0  0  0  0  0
  -27.8695   50.8061  -12.5727 C   0  0  0  0  0  0  0  0  0  0  0  0
  -28.8857   51.3978  -13.5460 C   0  0  0  0  0  0  0  0  0  0  0  0
  -29.8904   50.4393  -13.9448 N   0  0  0  0  0  0  0  0  0  0  0  0
  -24.9264   48.2670  -14.4164 C   0  0  0  0  0  0  0  0  0  0  0  0
  -25.5147   48.7497  -15.4311 O   0  0  0  0  0  0  0  0  0  0  0  0
  -23.5176   48.2203  -14.5524 O   0  0  0  0  0  0  0  0  0  0  0  0
  -20.2312   39.4447  -12.8062 C   0  0  1  0  0  0  0  0  0  0  0  0
  -21.4646   38.5332  -12.9431 C   0  0  0  0  0  0  0  0  0  0  0  0
  -19.4366   39.1730  -13.8963 O   0  0  0  0  0  0  0  0  0  0  0  0
  -18.0058   38.3847  -13.4841 P   0  0  0  0  0  0  0  0  0  0  0  0
  -17.8973   37.0340  -14.1627 O   0  0  0  0  0  0  0  0  0  0  0  0
  -16.7014   39.3192  -14.0492 O   0  0  0  0  0  0  0  0  0  0  0  0
  -17.8111   38.1565  -11.8395 O   0  0  0  0  0  0  0  0  0  0  0  0
  -25.0911   40.9049  -18.3849 C   0  0  0  0  0  0  0  0  0  0  0  0
  -24.1544   41.0883  -19.5373 C   0  0  0  0  0  0  0  0  0  0  0  0
  -26.0583   39.7766  -18.7491 C   0  0  0  0  0  0  0  0  0  0  0  0
  1  2  1  0
  2  3  1  0
  2  4  1  0
  4  5  1  6
  5  6  1  0
  6  7  2  0
  6  8  1  0
  8  9  1  1
  8 10  1  0
 10 11  1  0
 11 12  2  0
 11 13  1  0
 13 14  1  6
 14 15  1  0
 15 16  2  0
 15 17  1  0
 17 18  1  1
 17 19  1  0
 19 20  1  0
 20 21  1  0
 21 22  1  0
 22 23  1  0
 13 24  1  0
 24 25  1  0
 24 26  1  0
  4 27  1  0
 27 28  2  0
 27 29  1  0
 30 29  1  1
 30 31  1  0
 31 32  2  0
 31 33  1  0
 33 34  1  0
 34 35  1  1
 35 36  1  0
 36 37  1  0
 37 38  1  0
 38 39  1  0
 39 40  2  0
 39 41  1  0
 34 42  1  0
 42 43  2  0
 42 44  1  0
 45 44  1  6
 45 46  1  0
 46 47  2  0
 46 48  1  0
 48 49  1  0
 49 50  1  0
 50 51  1  0
 51 52  1  0
 52 53  1  6
 53 54  2  0
 53 55  1  0
 55 56  1  0
 56 57  1  0
 57 58  1  0
 58 59  1  0
 59 60  1  6
 60 61  2  0
 60 62  1  0
 62 63  1  0
 63 64  1  1
 64 65  1  0
 65 66  1  0
 66 67  1  0
 67 68  1  0
 63 69  1  0
 69 70  2  0
 69 71  1  0
 45 72  1  0
 72 73  1  6
 72 74  1  0
 74 75  1  0
 75 76  2  0
 75 77  1  0
 75 78  1  0
 30 79  1  0
 79 80  1  0
 79 81  1  0
 52 48  1  0
 59 55  1  0
M  CHG  3  18   1  23   1  68   1
M  END
>  <shape_align_shape_tanimoto>  (1) 
0.25515521579091482

>  <shape_align_color_tanimoto>  (1) 
0.027128427396598726

>  <metric>  (1) 
shape

>  <metric_score>  (1) 
0.255

>  <template_pid>  (1) 
4GLR

>  <template_shape_score>  (1) 
0.255

>  <template_color_score>  (1) 
0.027

>  <template_combo_score>  (1) 
0.141

$$$$
4GLR_color_pose
     RDKit          3D

 81 82  0  0  0  0  0  0  0  0999 V2000
  -13.8940   45.1867   -8.5380 C   0  0  0  0  0  0  0  0  0  0  0  0
  -14.9486   46.1151   -8.0197 C   0  0  0  0  0  0  0  0  0  0  0  0
  -15.1734   45.8534   -6.5618 C   0  0  0  0  0  0  0  0  0  0  0  0
  -16.2518   45.9468   -8.8159 C   0  0  2  0  0  0  0  0  0  0  0  0
  -17.2363   46.8456   -8.3201 N   0  0  0  0  0  0  0  0  0  0  0  0
  -17.6936   47.9197   -9.1119 C   0  0  0  0  0  0  0  0  0  0  0  0
  -17.2360   47.9971  -10.2934 O   0  0  0  0  0  0  0  0  0  0  0  0
  -18.6353   48.9695   -8.7056 C   0  0  2  0  0  0  0  0  0  0  0  0
  -17.8970   50.3547   -8.9054 C   0  0  0  0  0  0  0  0  0  0  0  0
  -19.0002   48.9529   -7.3084 N   0  0  0  0  0  0  0  0  0  0  0  0
  -20.1137   49.7121   -6.8795 C   0  0  0  0  0  0  0  0  0  0  0  0
  -20.7223   50.3646   -7.7962 O   0  0  0  0  0  0  0  0  0  0  0  0
  -20.6065   49.8168   -5.5018 C   0  0  1  0  0  0  0  0  0  0  0  0
  -21.5289   50.9712   -5.4750 N   0  0  0  0  0  0  0  0  0  0  0  0
  -21.1744   52.1171   -4.6691 C   0  0  0  0  0  0  0  0  0  0  0  0
  -20.0933   52.0094   -4.0601 O   0  0  0  0  0  0  0  0  0  0  0  0
  -22.1090   53.2382   -4.6697 C   0  0  1  0  0  0  0  0  0  0  0  0
  -22.9228   53.2069   -5.9241 N   0  0  0  0  0  0  0  0  0  0  0  0
  -23.0134   53.4419   -3.5436 C   0  0  0  0  0  0  0  0  0  0  0  0
  -22.5540   53.7250   -2.1986 C   0  0  0  0  0  0  0  0  0  0  0  0
  -21.7143   52.7976   -1.4065 C   0  0  0  0  0  0  0  0  0  0  0  0
  -21.5587   53.4601   -0.0048 C   0  0  0  0  0  0  0  0  0  0  0  0
  -20.7712   52.6384    0.8551 N   0  0  0  0  0  0  0  0  0  0  0  0
  -21.3413   48.5832   -5.0963 C   0  0  0  0  0  0  0  0  0  0  0  0
  -20.4680   47.3763   -5.1458 C   0  0  0  0  0  0  0  0  0  0  0  0
  -21.9883   48.7447   -3.7200 C   0  0  0  0  0  0  0  0  0  0  0  0
  -16.6462   44.5637   -8.8810 C   0  0  0  0  0  0  0  0  0  0  0  0
  -15.7047   43.7248   -9.1971 O   0  0  0  0  0  0  0  0  0  0  0  0
  -17.9012   43.9375   -8.6598 N   0  0  0  0  0  0  0  0  0  0  0  0
  -17.9051   42.4853   -8.7962 C   0  0  2  0  0  0  0  0  0  0  0  0
  -18.3143   42.0071  -10.1249 C   0  0  0  0  0  0  0  0  0  0  0  0
  -17.7743   40.9202  -10.5240 O   0  0  0  0  0  0  0  0  0  0  0  0
  -19.2341   42.6032  -11.0102 N   0  0  0  0  0  0  0  0  0  0  0  0
  -19.4095   41.9279  -12.2939 C   0  0  1  0  0  0  0  0  0  0  0  0
  -20.1285   40.5853  -12.0571 C   0  0  0  0  0  0  0  0  0  0  0  0
  -20.2617   39.9218  -13.4000 C   0  0  0  0  0  0  0  0  0  0  0  0
  -20.8879   38.5440  -13.3394 C   0  0  0  0  0  0  0  0  0  0  0  0
  -20.0058   37.7394  -12.5186 N   0  0  0  0  0  0  0  0  0  0  0  0
  -20.2517   36.3447  -12.2719 C   0  0  0  0  0  0  0  0  0  0  0  0
  -21.3332   35.8199  -12.7319 N   0  0  0  0  0  0  0  0  0  0  0  0
  -19.3204   35.5526  -11.5354 N   0  0  0  0  0  0  0  0  0  0  0  0
  -20.2205   42.7121  -13.2102 C   0  0  0  0  0  0  0  0  0  0  0  0
  -20.1124   42.6098  -14.4784 O   0  0  0  0  0  0  0  0  0  0  0  0
  -21.2230   43.6719  -12.7976 N   0  0  0  0  0  0  0  0  0  0  0  0
  -21.9723   44.4456  -13.7656 C   0  0  2  0  0  0  0  0  0  0  0  0
  -22.2863   45.7510  -13.1833 C   0  0  0  0  0  0  0  0  0  0  0  0
  -22.1542   46.7671  -13.9560 O   0  0  0  0  0  0  0  0  0  0  0  0
  -22.7173   46.0399  -11.8715 N   0  0  0  0  0  0  0  0  0  0  0  0
  -22.7424   47.4259  -11.3754 C   0  0  0  0  0  0  0  0  0  0  0  0
  -22.4042   47.2526   -9.9160 C   0  0  0  0  0  0  0  0  0  0  0  0
  -22.3471   45.7315   -9.6846 C   0  0  0  0  0  0  0  0  0  0  0  0
  -23.2602   45.2277  -10.8120 C   0  0  1  0  0  0  0  0  0  0  0  0
  -24.6255   45.6582  -10.3515 C   0  0  0  0  0  0  0  0  0  0  0  0
  -25.2042   46.6876  -10.7991 O   0  0  0  0  0  0  0  0  0  0  0  0
  -25.3455   44.9292   -9.3732 N   0  0  0  0  0  0  0  0  0  0  0  0
  -26.6312   45.3968   -8.8446 C   0  0  0  0  0  0  0  0  0  0  0  0
  -26.7213   44.8173   -7.4526 C   0  0  0  0  0  0  0  0  0  0  0  0
  -25.4378   44.0411   -7.2219 C   0  0  0  0  0  0  0  0  0  0  0  0
  -25.1042   43.6905   -8.6980 C   0  0  1  0  0  0  0  0  0  0  0  0
  -26.1093   42.6255   -9.0186 C   0  0  0  0  0  0  0  0  0  0  0  0
  -27.1420   42.8276   -9.6948 O   0  0  0  0  0  0  0  0  0  0  0  0
  -25.9368   41.2734   -8.5468 N   0  0  0  0  0  0  0  0  0  0  0  0
  -26.9547   40.2862   -8.8597 C   0  0  1  0  0  0  0  0  0  0  0  0
  -26.6041   39.3448   -9.9575 C   0  0  0  0  0  0  0  0  0  0  0  0
  -25.3772   38.5179   -9.7272 C   0  0  0  0  0  0  0  0  0  0  0  0
  -25.2454   37.6452  -10.9854 C   0  0  0  0  0  0  0  0  0  0  0  0
  -24.0295   36.7919  -10.8485 C   0  0  0  0  0  0  0  0  0  0  0  0
  -24.0425   35.9099   -9.7121 N   0  0  0  0  0  0  0  0  0  0  0  0
  -27.2902   39.5241   -7.6415 C   0  0  0  0  0  0  0  0  0  0  0  0
  -26.7581   39.7473   -6.5083 O   0  0  0  0  0  0  0  0  0  0  0  0
  -28.2280   38.4971   -7.6758 O   0  0  0  0  0  0  0  0  0  0  0  0
  -23.2347   43.7629  -14.2606 C   0  0  1  0  0  0  0  0  0  0  0  0
  -23.8813   44.7838  -15.1988 C   0  0  0  0  0  0  0  0  0  0  0  0
  -23.0034   42.5714  -14.8863 O   0  0  0  0  0  0  0  0  0  0  0  0
  -24.0854   41.3355  -14.5515 P   0  0  0  0  0  0  0  0  0  0  0  0
  -23.3855   40.0201  -14.7981 O   0  0  0  0  0  0  0  0  0  0  0  0
  -24.6150   41.3194  -12.9489 O   0  0  0  0  0  0  0  0  0  0  0  0
  -25.4003   41.3507  -15.6298 O   0  0  0  0  0  0  0  0  0  0  0  0
  -18.7548   41.8606   -7.6951 C   0  0  0  0  0  0  0  0  0  0  0  0
  -20.1874   42.3340   -7.7624 C   0  0  0  0  0  0  0  0  0  0  0  0
  -18.6927   40.3430   -7.7713 C   0  0  0  0  0  0  0  0  0  0  0  0
  1  2  1  0
  2  3  1  0
  2  4  1  0
  4  5  1  1
  5  6  1  0
  6  7  2  0
  6  8  1  0
  8  9  1  1
  8 10  1  0
 10 11  1  0
 11 12  2  0
 11 13  1  0
 13 14  1  6
 14 15  1  0
 15 16  2  0
 15 17  1  0
 17 18  1  6
 17 19  1  0
 19 20  1  0
 20 21  1  0
 21 22  1  0
 22 23  1  0
 13 24  1  0
 24 25  1  0
 24 26  1  0
  4 27  1  0
 27 28  2  0
 27 29  1  0
 30 29  1  6
 30 31  1  0
 31 32  2  0
 31 33  1  0
 33 34  1  0
 34 35  1  1
 35 36  1  0
 36 37  1  0
 37 38  1  0
 38 39  1  0
 39 40  2  0
 39 41  1  0
 34 42  1  0
 42 43  2  0
 42 44  1  0
 45 44  1  1
 45 46  1  0
 46 47  2  0
 46 48  1  0
 48 49  1  0
 49 50  1  0
 50 51  1  0
 51 52  1  0
 52 53  1  1
 53 54  2  0
 53 55  1  0
 55 56  1  0
 56 57  1  0
 57 58  1  0
 58 59  1  0
 59 60  1  6
 60 61  2  0
 60 62  1  0
 62 63  1  0
 63 64  1  6
 64 65  1  0
 65 66  1  0
 66 67  1  0
 67 68  1  0
 63 69  1  0
 69 70  2  0
 69 71  1  0
 45 72  1  0
 72 73  1  6
 72 74  1  0
 74 75  1  0
 75 76  2  0
 75 77  1  0
 75 78  1  0
 30 79  1  0
 79 80  1  0
 79 81  1  0
 52 48  1  0
 59 55  1  0
M  CHG  3  18   1  23   1  68   1
M  END
>  <shape_align_shape_tanimoto>  (2) 
0.22656922765593263

>  <shape_align_color_tanimoto>  (2) 
0.030755529824258939

>  <metric>  (2) 
color

>  <metric_score>  (2) 
0.031

>  <template_pid>  (2) 
4GLR

>  <template_shape_score>  (2) 
0.227

>  <template_color_score>  (2) 
0.031

>  <template_combo_score>  (2) 
0.129

$$$$
4GLR_combo_pose
     RDKit          3D

 81 82  0  0  0  0  0  0  0  0999 V2000
  -28.5711   38.4784  -15.6955 C   0  0  0  0  0  0  0  0  0  0  0  0
  -27.5116   37.6353  -15.0695 C   0  0  0  0  0  0  0  0  0  0  0  0
  -27.0694   36.5786  -16.0239 C   0  0  0  0  0  0  0  0  0  0  0  0
  -26.3371   38.5071  -14.5711 C   0  0  2  0  0  0  0  0  0  0  0  0
  -26.9079   39.3977  -13.6213 N   0  0  0  0  0  0  0  0  0  0  0  0
  -26.3433   39.4168  -12.3131 C   0  0  0  0  0  0  0  0  0  0  0  0
  -25.3393   38.6336  -12.1464 O   0  0  0  0  0  0  0  0  0  0  0  0
  -26.7651   40.2002  -11.1760 C   0  0  2  0  0  0  0  0  0  0  0  0
  -26.9019   39.3096   -9.9064 C   0  0  0  0  0  0  0  0  0  0  0  0
  -27.9893   40.9341  -11.2617 N   0  0  0  0  0  0  0  0  0  0  0  0
  -28.1677   42.2550  -10.8494 C   0  0  0  0  0  0  0  0  0  0  0  0
  -27.1379   42.8491  -10.3657 O   0  0  0  0  0  0  0  0  0  0  0  0
  -29.4059   43.0586  -10.8917 C   0  0  1  0  0  0  0  0  0  0  0  0
  -29.1693   44.3318  -10.1597 N   0  0  0  0  0  0  0  0  0  0  0  0
  -29.6553   44.4049   -8.8227 C   0  0  0  0  0  0  0  0  0  0  0  0
  -30.2702   43.4169   -8.2845 O   0  0  0  0  0  0  0  0  0  0  0  0
  -29.4947   45.5987   -7.9584 C   0  0  1  0  0  0  0  0  0  0  0  0
  -29.9343   45.2864   -6.6445 N   0  0  0  0  0  0  0  0  0  0  0  0
  -28.1512   46.2336   -8.0864 C   0  0  0  0  0  0  0  0  0  0  0  0
  -27.9034   47.4263   -7.2349 C   0  0  0  0  0  0  0  0  0  0  0  0
  -28.8561   48.5755   -7.4652 C   0  0  0  0  0  0  0  0  0  0  0  0
  -28.4312   49.7069   -6.5145 C   0  0  0  0  0  0  0  0  0  0  0  0
  -27.0715   50.1229   -6.8279 N   0  0  0  0  0  0  0  0  0  0  0  0
  -29.9830   43.3487  -12.2317 C   0  0  0  0  0  0  0  0  0  0  0  0
  -30.3526   42.0917  -12.9703 C   0  0  0  0  0  0  0  0  0  0  0  0
  -31.3052   44.0959  -11.9674 C   0  0  0  0  0  0  0  0  0  0  0  0
  -25.5144   39.0032  -15.6491 C   0  0  0  0  0  0  0  0  0  0  0  0
  -24.9903   38.0888  -16.4085 O   0  0  0  0  0  0  0  0  0  0  0  0
  -25.1873   40.3215  -16.0078 N   0  0  0  0  0  0  0  0  0  0  0  0
  -24.3041   40.5023  -17.1451 C   0  0  2  0  0  0  0  0  0  0  0  0
  -23.1638   41.3971  -16.9116 C   0  0  0  0  0  0  0  0  0  0  0  0
  -22.2332   41.3548  -17.7966 O   0  0  0  0  0  0  0  0  0  0  0  0
  -22.9914   42.2840  -15.8235 N   0  0  0  0  0  0  0  0  0  0  0  0
  -21.8185   43.0482  -15.7146 C   0  0  1  0  0  0  0  0  0  0  0  0
  -21.7558   44.4845  -15.5284 C   0  0  0  0  0  0  0  0  0  0  0  0
  -22.2533   45.5175  -16.4175 C   0  0  0  0  0  0  0  0  0  0  0  0
  -23.6590   45.7127  -16.7389 C   0  0  0  0  0  0  0  0  0  0  0  0
  -24.4386   44.7562  -17.4306 N   0  0  0  0  0  0  0  0  0  0  0  0
  -25.8122   45.1335  -17.6775 C   0  0  0  0  0  0  0  0  0  0  0  0
  -26.1670   46.3647  -17.4635 N   0  0  0  0  0  0  0  0  0  0  0  0
  -26.7992   44.2517  -18.1448 N   0  0  0  0  0  0  0  0  0  0  0  0
  -20.9683   42.4838  -14.5386 C   0  0  0  0  0  0  0  0  0  0  0  0
  -19.9004   43.0301  -14.2496 O   0  0  0  0  0  0  0  0  0  0  0  0
  -21.4054   41.3751  -13.8129 N   0  0  0  0  0  0  0  0  0  0  0  0
  -20.6511   40.8791  -12.7163 C   0  0  2  0  0  0  0  0  0  0  0  0
  -19.7044   41.7696  -12.0512 C   0  0  0  0  0  0  0  0  0  0  0  0
  -18.5335   41.1752  -11.8323 O   0  0  0  0  0  0  0  0  0  0  0  0
  -19.7165   43.0719  -11.5831 N   0  0  0  0  0  0  0  0  0  0  0  0
  -18.3724   43.5995  -11.0455 C   0  0  0  0  0  0  0  0  0  0  0  0
  -18.3538   44.8877  -11.8497 C   0  0  0  0  0  0  0  0  0  0  0  0
  -19.8223   45.3228  -11.9763 C   0  0  0  0  0  0  0  0  0  0  0  0
  -20.5427   44.1966  -11.2943 C   0  0  1  0  0  0  0  0  0  0  0  0
  -21.9755   44.1337  -11.4117 C   0  0  0  0  0  0  0  0  0  0  0  0
  -22.6877   43.2728  -11.9751 O   0  0  0  0  0  0  0  0  0  0  0  0
  -22.7523   45.2070  -10.7862 N   0  0  0  0  0  0  0  0  0  0  0  0
  -22.2365   46.3653  -10.0923 C   0  0  0  0  0  0  0  0  0  0  0  0
  -23.3951   46.8357   -9.2053 C   0  0  0  0  0  0  0  0  0  0  0  0
  -24.3897   45.7012   -9.2812 C   0  0  0  0  0  0  0  0  0  0  0  0
  -24.1926   45.2050  -10.7163 C   0  0  1  0  0  0  0  0  0  0  0  0
  -24.9643   46.0265  -11.6090 C   0  0  0  0  0  0  0  0  0  0  0  0
  -26.2117   45.7090  -11.7539 O   0  0  0  0  0  0  0  0  0  0  0  0
  -24.5654   47.1498  -12.3643 N   0  0  0  0  0  0  0  0  0  0  0  0
  -25.5842   47.7937  -13.2026 C   0  0  1  0  0  0  0  0  0  0  0  0
  -26.1707   48.9794  -12.4547 C   0  0  0  0  0  0  0  0  0  0  0  0
  -27.2133   49.6358  -13.3052 C   0  0  0  0  0  0  0  0  0  0  0  0
  -27.8695   50.8061  -12.5727 C   0  0  0  0  0  0  0  0  0  0  0  0
  -28.8857   51.3978  -13.5460 C   0  0  0  0  0  0  0  0  0  0  0  0
  -29.8904   50.4393  -13.9448 N   0  0  0  0  0  0  0  0  0  0  0  0
  -24.9264   48.2670  -14.4164 C   0  0  0  0  0  0  0  0  0  0  0  0
  -25.5147   48.7497  -15.4311 O   0  0  0  0  0  0  0  0  0  0  0  0
  -23.5176   48.2203  -14.5524 O   0  0  0  0  0  0  0  0  0  0  0  0
  -20.2312   39.4447  -12.8062 C   0  0  1  0  0  0  0  0  0  0  0  0
  -21.4646   38.5332  -12.9431 C   0  0  0  0  0  0  0  0  0  0  0  0
  -19.4366   39.1730  -13.8963 O   0  0  0  0  0  0  0  0  0  0  0  0
  -18.0058   38.3847  -13.4841 P   0  0  0  0  0  0  0  0  0  0  0  0
  -17.8973   37.0340  -14.1627 O   0  0  0  0  0  0  0  0  0  0  0  0
  -16.7014   39.3192  -14.0492 O   0  0  0  0  0  0  0  0  0  0  0  0
  -17.8111   38.1565  -11.8395 O   0  0  0  0  0  0  0  0  0  0  0  0
  -25.0911   40.9049  -18.3849 C   0  0  0  0  0  0  0  0  0  0  0  0
  -24.1544   41.0883  -19.5373 C   0  0  0  0  0  0  0  0  0  0  0  0
  -26.0583   39.7766  -18.7491 C   0  0  0  0  0  0  0  0  0  0  0  0
  1  2  1  0
  2  3  1  0
  2  4  1  0
  4  5  1  6
  5  6  1  0
  6  7  2  0
  6  8  1  0
  8  9  1  1
  8 10  1  0
 10 11  1  0
 11 12  2  0
 11 13  1  0
 13 14  1  6
 14 15  1  0
 15 16  2  0
 15 17  1  0
 17 18  1  1
 17 19  1  0
 19 20  1  0
 20 21  1  0
 21 22  1  0
 22 23  1  0
 13 24  1  0
 24 25  1  0
 24 26  1  0
  4 27  1  0
 27 28  2  0
 27 29  1  0
 30 29  1  1
 30 31  1  0
 31 32  2  0
 31 33  1  0
 33 34  1  0
 34 35  1  1
 35 36  1  0
 36 37  1  0
 37 38  1  0
 38 39  1  0
 39 40  2  0
 39 41  1  0
 34 42  1  0
 42 43  2  0
 42 44  1  0
 45 44  1  6
 45 46  1  0
 46 47  2  0
 46 48  1  0
 48 49  1  0
 49 50  1  0
 50 51  1  0
 51 52  1  0
 52 53  1  6
 53 54  2  0
 53 55  1  0
 55 56  1  0
 56 57  1  0
 57 58  1  0
 58 59  1  0
 59 60  1  6
 60 61  2  0
 60 62  1  0
 62 63  1  0
 63 64  1  1
 64 65  1  0
 65 66  1  0
 66 67  1  0
 67 68  1  0
 63 69  1  0
 69 70  2  0
 69 71  1  0
 45 72  1  0
 72 73  1  6
 72 74  1  0
 74 75  1  0
 75 76  2  0
 75 77  1  0
 75 78  1  0
 30 79  1  0
 79 80  1  0
 79 81  1  0
 52 48  1  0
 59 55  1  0
M  CHG  3  18   1  23   1  68   1
M  END
>  <shape_align_shape_tanimoto>  (3) 
0.25515521579091482

>  <shape_align_color_tanimoto>  (3) 
0.027128427396598726

>  <metric>  (3) 
combo

>  <metric_score>  (3) 
0.141

>  <template_pid>  (3) 
4GLR

>  <template_shape_score>  (3) 
0.255

>  <template_color_score>  (3) 
0.027

>  <template_combo_score>  (3) 
0.141

$$$$
