4M7C_shape_pose
     RDKit          3D

107110  0  0  0  0  0  0  0  0999 V2000
   42.9628    3.3244   95.9909 C   0  0  0  0  0  0  0  0  0  0  0  0
   43.3611    3.4062   97.4257 C   0  0  0  0  0  0  0  0  0  0  0  0
   43.3217    4.8932   97.8026 C   0  0  0  0  0  0  0  0  0  0  0  0
   42.4711    2.6983   98.3802 C   0  0  0  0  0  0  0  0  0  0  0  0
   42.3924    1.1689   98.0861 C   0  0  2  0  0  0  0  0  0  0  0  0
   41.5005    0.6931   99.1266 N   0  0  0  0  0  0  0  0  0  0  0  0
   40.0675    0.7111   98.9797 C   0  0  0  0  0  0  0  0  0  0  0  0
   39.5137    1.1672   97.9336 O   0  0  0  0  0  0  0  0  0  0  0  0
   39.2336    0.1846  100.0650 C   0  0  0  0  0  0  0  0  0  0  0  0
   37.8449    0.3233   99.7361 N   0  0  0  0  0  0  0  0  0  0  0  0
   37.1886   -0.2300   98.6227 C   0  0  0  0  0  0  0  0  0  0  0  0
   37.7564   -0.9306   97.7419 O   0  0  0  0  0  0  0  0  0  0  0  0
   35.6865    0.0613   98.5294 C   0  0  2  0  0  0  0  0  0  0  0  0
   35.0886   -0.4307   99.8478 C   0  0  0  0  0  0  0  0  0  0  0  0
   35.3561   -1.9346   99.9891 C   0  0  0  0  0  0  0  0  0  0  0  0
   35.0371   -2.4831  101.3478 C   0  0  0  0  0  0  0  0  0  0  0  0
   35.2707   -3.8946  101.3500 N   0  0  0  0  0  0  0  0  0  0  0  0
   36.4337   -4.6346  101.2294 C   0  0  0  0  0  0  0  0  0  0  0  0
   36.5740   -6.0215  101.2089 N   0  0  0  0  0  0  0  0  0  0  0  0
   37.5665   -3.8925  101.0937 N   0  0  0  0  0  0  0  0  0  0  0  0
   35.1122   -0.4676   97.3621 N   0  0  0  0  0  0  0  0  0  0  0  0
   34.7672    0.4492   96.3026 C   0  0  0  0  0  0  0  0  0  0  0  0
   35.0280    1.6742   96.5298 O   0  0  0  0  0  0  0  0  0  0  0  0
   34.1498   -0.0142   95.0325 C   0  0  1  0  0  0  0  0  0  0  0  0
   33.8432   -1.4373   95.0483 N   0  0  0  0  0  0  0  0  0  0  0  0
   32.8553    0.7178   94.7252 C   0  0  0  0  0  0  0  0  0  0  0  0
   33.0164    2.0882   94.6498 O   0  0  0  0  0  0  0  0  0  0  0  0
   43.7629    0.6582   98.1988 C   0  0  0  0  0  0  0  0  0  0  0  0
   44.5255    0.8016   97.2075 O   0  0  0  0  0  0  0  0  0  0  0  0
   44.2986    0.0212   99.3326 N   0  0  0  0  0  0  0  0  0  0  0  0
   45.6563   -0.4702   99.4560 C   0  0  1  0  0  0  0  0  0  0  0  0
   46.5087    0.4838  100.3186 C   0  0  0  0  0  0  0  0  0  0  0  0
   46.6317    1.8531   99.7351 C   0  0  0  0  0  0  0  0  0  0  0  0
   47.3123    1.8821   98.4088 C   0  0  0  0  0  0  0  0  0  0  0  0
   47.8189    0.8816   97.8531 O   0  0  0  0  0  0  0  0  0  0  0  0
   47.3939    3.1060   97.7480 O   0  0  0  0  0  0  0  0  0  0  0  0
   45.6956   -1.7522  100.1800 C   0  0  0  0  0  0  0  0  0  0  0  0
   46.8348   -2.1356  100.5818 O   0  0  0  0  0  0  0  0  0  0  0  0
   44.5254   -2.5668  100.4426 N   0  0  0  0  0  0  0  0  0  0  0  0
   44.8089   -3.7487  101.2204 C   0  0  2  0  0  0  0  0  0  0  0  0
   45.3002   -4.9221  100.5086 C   0  0  0  0  0  0  0  0  0  0  0  0
   45.8616   -5.8093  101.2745 O   0  0  0  0  0  0  0  0  0  0  0  0
   45.2536   -5.2099   99.1209 N   0  0  0  0  0  0  0  0  0  0  0  0
   45.8829   -6.4376   98.7083 C   0  0  1  0  0  0  0  0  0  0  0  0
   44.8215   -7.5841   98.7224 C   0  0  0  0  0  0  0  0  0  0  0  0
   44.3524   -7.8016  100.0027 O   0  0  0  0  0  0  0  0  0  0  0  0
   46.5553   -6.4684   97.4177 C   0  0  0  0  0  0  0  0  0  0  0  0
   47.6769   -7.1044   97.3816 O   0  0  0  0  0  0  0  0  0  0  0  0
   46.1378   -5.9007   96.2001 N   0  0  0  0  0  0  0  0  0  0  0  0
   47.0518   -6.1135   95.0690 C   0  0  1  0  0  0  0  0  0  0  0  0
   46.9031   -7.6228   94.6652 C   0  0  0  0  0  0  0  0  0  0  0  0
   47.8013   -7.9382   93.5449 C   0  0  0  0  0  0  0  0  0  0  0  0
   47.6910   -7.9302   92.2013 C   0  0  0  0  0  0  0  0  0  0  0  0
   48.7888   -8.3030   91.5492 N   0  0  0  0  0  0  0  0  0  0  0  0
   49.6483   -8.5668   92.5253 C   0  0  0  0  0  0  0  0  0  0  0  0
   49.1769   -8.3916   93.7510 N   0  0  0  0  0  0  0  0  0  0  0  0
   46.7376   -5.3785   93.8597 C   0  0  0  0  0  0  0  0  0  0  0  0
   47.6461   -5.3612   92.9418 O   0  0  0  0  0  0  0  0  0  0  0  0
   45.5583   -4.6792   93.5526 N   0  0  0  0  0  0  0  0  0  0  0  0
   45.2311   -3.9607   92.3796 C   0  0  1  0  0  0  0  0  0  0  0  0
   43.9582   -4.2523   91.6817 C   0  0  0  0  0  0  0  0  0  0  0  0
   43.6782   -5.5164   91.0817 C   0  0  0  0  0  0  0  0  0  0  0  0
   43.5938   -6.8212   91.7872 C   0  0  0  0  0  0  0  0  0  0  0  0
   43.0759   -7.8039   90.7599 N   0  0  0  0  0  0  0  0  0  0  0  0
   43.9852   -8.0645   89.7124 C   0  0  0  0  0  0  0  0  0  0  0  0
   43.2136   -8.9815   88.7252 N   0  0  0  0  0  0  0  0  0  0  0  0
   45.0433   -7.8210   89.2925 N   0  0  0  0  0  0  0  0  0  0  0  0
   45.2340   -2.4680   92.6751 C   0  0  0  0  0  0  0  0  0  0  0  0
   44.8220   -1.7985   91.6388 O   0  0  0  0  0  0  0  0  0  0  0  0
   45.5907   -1.8376   93.8617 N   0  0  0  0  0  0  0  0  0  0  0  0
   45.3768   -0.3636   93.8211 C   0  0  1  0  0  0  0  0  0  0  0  0
   46.2203    0.3934   92.9033 C   0  0  0  0  0  0  0  0  0  0  0  0
   47.7065    0.3861   93.1153 C   0  0  0  0  0  0  0  0  0  0  0  0
   48.0911    0.9729   94.4532 C   0  0  0  0  0  0  0  0  0  0  0  0
   48.3398   -0.9741   92.9398 C   0  0  0  0  0  0  0  0  0  0  0  0
   43.9173   -0.3176   93.5835 C   0  0  0  0  0  0  0  0  0  0  0  0
   43.3373   -1.4669   93.6808 O   0  0  0  0  0  0  0  0  0  0  0  0
   43.0948    0.7640   93.2762 N   0  0  0  0  0  0  0  0  0  0  0  0
   41.6657    0.4336   93.1151 C   0  0  1  0  0  0  0  0  0  0  0  0
   40.8881    1.5302   93.7767 C   0  0  0  0  0  0  0  0  0  0  0  0
   41.3158    0.1848   91.7304 C   0  0  0  0  0  0  0  0  0  0  0  0
   42.2257    0.5018   90.8567 O   0  0  0  0  0  0  0  0  0  0  0  0
   40.1425   -0.3530   91.1844 N   0  0  0  0  0  0  0  0  0  0  0  0
   39.9614   -0.5124   89.7276 C   0  0  0  0  0  0  0  0  0  0  0  0
   38.7867   -1.4609   89.6284 C   0  0  0  0  0  0  0  0  0  0  0  0
   37.9572   -0.9684   90.8131 C   0  0  0  0  0  0  0  0  0  0  0  0
   39.0255   -0.8383   91.9168 C   0  0  1  0  0  0  0  0  0  0  0  0
   39.2425   -2.1892   92.5333 C   0  0  0  0  0  0  0  0  0  0  0  0
   40.3664   -2.7561   92.5110 O   0  0  0  0  0  0  0  0  0  0  0  0
   38.1074   -2.7677   93.1253 N   0  0  0  0  0  0  0  0  0  0  0  0
   38.0826   -4.0906   93.7755 C   0  0  1  0  0  0  0  0  0  0  0  0
   37.6047   -3.9817   95.1726 C   0  0  0  0  0  0  0  0  0  0  0  0
   37.5067   -5.2791   95.8671 C   0  0  0  0  0  0  0  0  0  0  0  0
   36.2745   -5.8635   96.1471 C   0  0  0  0  0  0  0  0  0  0  0  0
   36.5768   -7.0060   96.8429 N   0  0  0  0  0  0  0  0  0  0  0  0
   37.8970   -7.1253   96.9880 C   0  0  0  0  0  0  0  0  0  0  0  0
   38.7348   -8.0322   97.5650 C   0  0  0  0  0  0  0  0  0  0  0  0
   40.1012   -7.9751   97.5917 C   0  0  0  0  0  0  0  0  0  0  0  0
   40.7037   -6.8714   96.9671 C   0  0  0  0  0  0  0  0  0  0  0  0
   39.9221   -5.9430   96.3855 C   0  0  0  0  0  0  0  0  0  0  0  0
   38.5317   -6.0221   96.3684 C   0  0  0  0  0  0  0  0  0  0  0  0
   37.4450   -5.0678   92.9131 C   0  0  0  0  0  0  0  0  0  0  0  0
   36.2241   -5.4091   93.4629 O   0  0  0  0  0  0  0  0  0  0  0  0
   37.6562   -5.7196   91.7941 O   0  0  0  0  0  0  0  0  0  0  0  0
   43.6696   -4.0366  102.1435 C   0  0  0  0  0  0  0  0  0  0  0  0
   43.9469   -5.3086  102.9623 C   0  0  0  0  0  0  0  0  0  0  0  0
   43.3441   -2.9157  103.0944 C   0  0  0  0  0  0  0  0  0  0  0  0
  1  2  1  0
  2  3  1  0
  2  4  1  0
  5  4  1  1
  5  6  1  0
  6  7  1  0
  7  8  2  0
  7  9  1  0
  9 10  1  0
 10 11  1  0
 11 12  2  0
 11 13  1  0
 13 14  1  1
 14 15  1  0
 15 16  1  0
 16 17  1  0
 17 18  1  0
 18 19  1  0
 18 20  2  0
 13 21  1  0
 21 22  1  0
 22 23  2  0
 22 24  1  0
 24 25  1  1
 24 26  1  0
 26 27  1  0
  5 28  1  0
 28 29  2  0
 28 30  1  0
 30 31  1  0
 31 32  1  1
 32 33  1  0
 33 34  1  0
 34 35  2  0
 34 36  1  0
 31 37  1  0
 37 38  2  0
 37 39  1  0
 40 39  1  6
 40 41  1  0
 41 42  2  0
 41 43  1  0
 43 44  1  0
 44 45  1  6
 45 46  1  0
 44 47  1  0
 47 48  2  0
 47 49  1  0
 49 50  1  0
 50 51  1  6
 51 52  1  0
 52 53  2  0
 53 54  1  0
 54 55  1  0
 55 56  2  0
 50 57  1  0
 57 58  2  0
 57 59  1  0
 59 60  1  0
 60 61  1  1
 61 62  1  0
 62 63  1  0
 63 64  1  0
 64 65  1  0
 65 66  1  0
 65 67  2  0
 60 68  1  0
 68 69  2  0
 68 70  1  0
 70 71  1  0
 71 72  1  6
 72 73  1  0
 73 74  1  0
 73 75  1  0
 71 76  1  0
 76 77  2  0
 76 78  1  0
 78 79  1  0
 79 80  1  6
 79 81  1  0
 81 82  2  0
 81 83  1  0
 83 84  1  0
 84 85  1  0
 85 86  1  0
 86 87  1  0
 87 88  1  6
 88 89  2  0
 88 90  1  0
 90 91  1  0
 91 92  1  1
 92 93  1  0
 93 94  2  0
 94 95  1  0
 95 96  1  0
 96 97  2  0
 97 98  1  0
 98 99  2  0
 99100  1  0
100101  2  0
 91102  1  0
102103  2  0
102104  1  0
 40105  1  0
105106  1  0
105107  1  0
 56 52  1  0
 87 83  1  0
101 93  1  0
101 96  1  0
M  CHG  5  20   1  25   1  36  -1  67   1 104  -1
M  END
>  <shape_align_shape_tanimoto>  (1) 
0.16812004325034707

>  <shape_align_color_tanimoto>  (1) 
0.0040657463199312762

>  <metric>  (1) 
shape

>  <metric_score>  (1) 
0.168

>  <template_pid>  (1) 
4M7C

>  <template_shape_score>  (1) 
0.168

>  <template_color_score>  (1) 
0.004

>  <template_combo_score>  (1) 
0.086

$$$$
4M7C_color_pose
     RDKit          3D

107110  0  0  0  0  0  0  0  0999 V2000
   52.1782    1.3851   86.7568 C   0  0  0  0  0  0  0  0  0  0  0  0
   51.1418    0.8749   87.8088 C   0  0  0  0  0  0  0  0  0  0  0  0
   51.3503    1.8589   88.9599 C   0  0  0  0  0  0  0  0  0  0  0  0
   49.8258    1.0415   87.1229 C   0  0  0  0  0  0  0  0  0  0  0  0
   48.5877    0.4719   87.8743 C   0  0  2  0  0  0  0  0  0  0  0  0
   47.4760    0.8762   87.0798 N   0  0  0  0  0  0  0  0  0  0  0  0
   47.4176    1.1232   85.6997 C   0  0  0  0  0  0  0  0  0  0  0  0
   48.4515    1.0315   84.9279 O   0  0  0  0  0  0  0  0  0  0  0  0
   46.2060    1.5194   84.9426 C   0  0  0  0  0  0  0  0  0  0  0  0
   44.9761    1.5164   85.6521 N   0  0  0  0  0  0  0  0  0  0  0  0
   43.8142    1.9658   84.9438 C   0  0  0  0  0  0  0  0  0  0  0  0
   43.9497    2.3624   83.7742 O   0  0  0  0  0  0  0  0  0  0  0  0
   42.4476    1.9627   85.5949 C   0  0  2  0  0  0  0  0  0  0  0  0
   42.1637    3.3944   85.9099 C   0  0  0  0  0  0  0  0  0  0  0  0
   43.1992    3.9855   86.8431 C   0  0  0  0  0  0  0  0  0  0  0  0
   42.9515    5.4394   87.1727 C   0  0  0  0  0  0  0  0  0  0  0  0
   42.9700    6.2581   85.9747 N   0  0  0  0  0  0  0  0  0  0  0  0
   42.7784    7.6714   86.0566 C   0  0  0  0  0  0  0  0  0  0  0  0
   42.8084    8.3833   84.8258 N   0  0  0  0  0  0  0  0  0  0  0  0
   42.5806    8.2673   87.2130 N   0  0  0  0  0  0  0  0  0  0  0  0
   42.6266    1.1195   86.7632 N   0  0  0  0  0  0  0  0  0  0  0  0
   42.0280   -0.1942   86.6386 C   0  0  0  0  0  0  0  0  0  0  0  0
   41.3975   -0.5151   85.5806 O   0  0  0  0  0  0  0  0  0  0  0  0
   42.1156   -1.2118   87.6986 C   0  0  1  0  0  0  0  0  0  0  0  0
   41.3642   -2.4120   87.3509 N   0  0  0  0  0  0  0  0  0  0  0  0
   43.5791   -1.6936   87.7898 C   0  0  0  0  0  0  0  0  0  0  0  0
   43.9414   -2.2176   86.5392 O   0  0  0  0  0  0  0  0  0  0  0  0
   48.6679    0.7554   89.2649 C   0  0  0  0  0  0  0  0  0  0  0  0
   49.5789    0.0965   89.9247 O   0  0  0  0  0  0  0  0  0  0  0  0
   47.9291    1.6580   90.0814 N   0  0  0  0  0  0  0  0  0  0  0  0
   48.2681    1.8299   91.4755 C   0  0  1  0  0  0  0  0  0  0  0  0
   48.5288    3.2892   91.7861 C   0  0  0  0  0  0  0  0  0  0  0  0
   47.4393    4.2370   91.4971 C   0  0  0  0  0  0  0  0  0  0  0  0
   46.1594    4.0462   92.1939 C   0  0  0  0  0  0  0  0  0  0  0  0
   45.3337    3.1876   91.7976 O   0  0  0  0  0  0  0  0  0  0  0  0
   45.8408    4.8216   93.3133 O   0  0  0  0  0  0  0  0  0  0  0  0
   47.6248    1.0606   92.5022 C   0  0  0  0  0  0  0  0  0  0  0  0
   48.3006    0.9916   93.6330 O   0  0  0  0  0  0  0  0  0  0  0  0
   46.4083    0.3496   92.5567 N   0  0  0  0  0  0  0  0  0  0  0  0
   46.1375   -0.3876   93.7761 C   0  0  2  0  0  0  0  0  0  0  0  0
   45.3857   -1.6512   93.4131 C   0  0  0  0  0  0  0  0  0  0  0  0
   45.7999   -2.6941   93.9416 O   0  0  0  0  0  0  0  0  0  0  0  0
   44.3102   -1.4991   92.5282 N   0  0  0  0  0  0  0  0  0  0  0  0
   43.4400   -2.4549   91.9550 C   0  0  1  0  0  0  0  0  0  0  0  0
   43.8492   -3.8932   92.4564 C   0  0  0  0  0  0  0  0  0  0  0  0
   45.1289   -4.2045   92.0365 O   0  0  0  0  0  0  0  0  0  0  0  0
   42.0182   -2.3709   92.3143 C   0  0  0  0  0  0  0  0  0  0  0  0
   41.2507   -2.9855   91.4595 O   0  0  0  0  0  0  0  0  0  0  0  0
   41.4630   -1.7328   93.4332 N   0  0  0  0  0  0  0  0  0  0  0  0
   40.0733   -1.6591   93.7856 C   0  0  1  0  0  0  0  0  0  0  0  0
   39.1646   -2.0065   92.6539 C   0  0  0  0  0  0  0  0  0  0  0  0
   39.4087   -1.0205   91.5254 C   0  0  0  0  0  0  0  0  0  0  0  0
   38.7988   -0.9725   90.2990 C   0  0  0  0  0  0  0  0  0  0  0  0
   39.3476    0.0949   89.6538 N   0  0  0  0  0  0  0  0  0  0  0  0
   40.2610    0.6888   90.4377 C   0  0  0  0  0  0  0  0  0  0  0  0
   40.3081    0.0009   91.6084 N   0  0  0  0  0  0  0  0  0  0  0  0
   39.7193   -2.1673   95.1063 C   0  0  0  0  0  0  0  0  0  0  0  0
   40.5753   -2.1253   96.0298 O   0  0  0  0  0  0  0  0  0  0  0  0
   38.4583   -2.7140   95.3952 N   0  0  0  0  0  0  0  0  0  0  0  0
   37.9773   -3.2499   96.6417 C   0  0  1  0  0  0  0  0  0  0  0  0
   36.4991   -3.1822   96.6594 C   0  0  0  0  0  0  0  0  0  0  0  0
   35.7822   -3.7053   97.8581 C   0  0  0  0  0  0  0  0  0  0  0  0
   36.1913   -2.9712   99.0854 C   0  0  0  0  0  0  0  0  0  0  0  0
   35.5750   -3.3966  100.3108 N   0  0  0  0  0  0  0  0  0  0  0  0
   34.2331   -3.2803  100.6691 C   0  0  0  0  0  0  0  0  0  0  0  0
   33.8423   -3.8068  101.9638 N   0  0  0  0  0  0  0  0  0  0  0  0
   33.3129   -2.7617   99.9586 N   0  0  0  0  0  0  0  0  0  0  0  0
   38.4494   -4.6763   96.8435 C   0  0  0  0  0  0  0  0  0  0  0  0
   38.0585   -5.3960   97.7781 O   0  0  0  0  0  0  0  0  0  0  0  0
   39.3937   -5.2549   95.9384 N   0  0  0  0  0  0  0  0  0  0  0  0
   39.9186   -6.5758   95.9931 C   0  0  1  0  0  0  0  0  0  0  0  0
   39.6966   -7.4707   94.8300 C   0  0  0  0  0  0  0  0  0  0  0  0
   40.2266   -7.0534   93.5114 C   0  0  0  0  0  0  0  0  0  0  0  0
   39.8616   -8.1830   92.5191 C   0  0  0  0  0  0  0  0  0  0  0  0
   39.5712   -5.8191   92.9252 C   0  0  0  0  0  0  0  0  0  0  0  0
   41.3441   -6.5250   96.4453 C   0  0  0  0  0  0  0  0  0  0  0  0
   42.0099   -7.5751   96.3467 O   0  0  0  0  0  0  0  0  0  0  0  0
   41.9649   -5.3767   96.9699 N   0  0  0  0  0  0  0  0  0  0  0  0
   43.3613   -5.3717   97.3805 C   0  0  1  0  0  0  0  0  0  0  0  0
   44.0777   -4.1681   96.8220 C   0  0  0  0  0  0  0  0  0  0  0  0
   43.4949   -5.4668   98.8771 C   0  0  0  0  0  0  0  0  0  0  0  0
   42.4786   -5.4570   99.6245 O   0  0  0  0  0  0  0  0  0  0  0  0
   44.7623   -5.5718   99.5137 N   0  0  0  0  0  0  0  0  0  0  0  0
   44.9670   -5.6595  100.9455 C   0  0  0  0  0  0  0  0  0  0  0  0
   46.3079   -4.9139  101.0453 C   0  0  0  0  0  0  0  0  0  0  0  0
   47.0734   -5.6495   99.9502 C   0  0  0  0  0  0  0  0  0  0  0  0
   46.0513   -5.6104   98.8270 C   0  0  1  0  0  0  0  0  0  0  0  0
   46.1569   -6.7920   97.9467 C   0  0  0  0  0  0  0  0  0  0  0  0
   45.5763   -7.8645   98.2539 O   0  0  0  0  0  0  0  0  0  0  0  0
   46.9042   -6.7667   96.7310 N   0  0  0  0  0  0  0  0  0  0  0  0
   46.9650   -7.9860   95.9035 C   0  0  1  0  0  0  0  0  0  0  0  0
   45.8360   -8.0125   94.9341 C   0  0  0  0  0  0  0  0  0  0  0  0
   45.8016   -9.1886   94.0760 C   0  0  0  0  0  0  0  0  0  0  0  0
   45.2541  -10.4094   94.5395 C   0  0  0  0  0  0  0  0  0  0  0  0
   45.4042  -11.3490   93.5924 N   0  0  0  0  0  0  0  0  0  0  0  0
   46.0241  -10.8199   92.5085 C   0  0  0  0  0  0  0  0  0  0  0  0
   46.3775  -11.3648   91.2838 C   0  0  0  0  0  0  0  0  0  0  0  0
   46.9813  -10.5645   90.3356 C   0  0  0  0  0  0  0  0  0  0  0  0
   47.2206   -9.2335   90.6285 C   0  0  0  0  0  0  0  0  0  0  0  0
   46.8576   -8.7363   91.8523 C   0  0  0  0  0  0  0  0  0  0  0  0
   46.2572   -9.4958   92.8262 C   0  0  0  0  0  0  0  0  0  0  0  0
   48.2875   -8.0620   95.3541 C   0  0  0  0  0  0  0  0  0  0  0  0
   48.6881   -7.9314   94.1848 O   0  0  0  0  0  0  0  0  0  0  0  0
   49.3401   -8.3333   96.2842 O   0  0  0  0  0  0  0  0  0  0  0  0
   45.3030    0.3782   94.7912 C   0  0  0  0  0  0  0  0  0  0  0  0
   45.0831   -0.5285   96.0245 C   0  0  0  0  0  0  0  0  0  0  0  0
   45.9102    1.6634   95.2449 C   0  0  0  0  0  0  0  0  0  0  0  0
  1  2  1  0
  2  3  1  0
  2  4  1  0
  5  4  1  6
  5  6  1  0
  6  7  1  0
  7  8  2  0
  7  9  1  0
  9 10  1  0
 10 11  1  0
 11 12  2  0
 11 13  1  0
 13 14  1  1
 14 15  1  0
 15 16  1  0
 16 17  1  0
 17 18  1  0
 18 19  1  0
 18 20  2  0
 13 21  1  0
 21 22  1  0
 22 23  2  0
 22 24  1  0
 24 25  1  6
 24 26  1  0
 26 27  1  0
  5 28  1  0
 28 29  2  0
 28 30  1  0
 30 31  1  0
 31 32  1  1
 32 33  1  0
 33 34  1  0
 34 35  2  0
 34 36  1  0
 31 37  1  0
 37 38  2  0
 37 39  1  0
 40 39  1  6
 40 41  1  0
 41 42  2  0
 41 43  1  0
 43 44  1  0
 44 45  1  1
 45 46  1  0
 44 47  1  0
 47 48  2  0
 47 49  1  0
 49 50  1  0
 50 51  1  6
 51 52  1  0
 52 53  2  0
 53 54  1  0
 54 55  1  0
 55 56  2  0
 50 57  1  0
 57 58  2  0
 57 59  1  0
 59 60  1  0
 60 61  1  6
 61 62  1  0
 62 63  1  0
 63 64  1  0
 64 65  1  0
 65 66  1  0
 65 67  2  0
 60 68  1  0
 68 69  2  0
 68 70  1  0
 70 71  1  0
 71 72  1  6
 72 73  1  0
 73 74  1  0
 73 75  1  0
 71 76  1  0
 76 77  2  0
 76 78  1  0
 78 79  1  0
 79 80  1  1
 79 81  1  0
 81 82  2  0
 81 83  1  0
 83 84  1  0
 84 85  1  0
 85 86  1  0
 86 87  1  0
 87 88  1  6
 88 89  2  0
 88 90  1  0
 90 91  1  0
 91 92  1  6
 92 93  1  0
 93 94  2  0
 94 95  1  0
 95 96  1  0
 96 97  2  0
 97 98  1  0
 98 99  2  0
 99100  1  0
100101  2  0
 91102  1  0
102103  2  0
102104  1  0
 40105  1  0
105106  1  0
105107  1  0
 56 52  1  0
 87 83  1  0
101 93  1  0
101 96  1  0
M  CHG  5  20   1  25   1  36  -1  67   1 104  -1
M  END
>  <shape_align_shape_tanimoto>  (2) 
0.14577661824273164

>  <shape_align_color_tanimoto>  (2) 
0.033478286173925433

>  <metric>  (2) 
color

>  <metric_score>  (2) 
0.033

>  <template_pid>  (2) 
4M7C

>  <template_shape_score>  (2) 
0.146

>  <template_color_score>  (2) 
0.033

>  <template_combo_score>  (2) 
0.090

$$$$
4M7C_combo_pose
     RDKit          3D

107110  0  0  0  0  0  0  0  0999 V2000
   38.6139   -0.4979   82.2518 C   0  0  0  0  0  0  0  0  0  0  0  0
   39.6957   -0.7718   83.3246 C   0  0  0  0  0  0  0  0  0  0  0  0
   40.6909   -1.6496   82.6751 C   0  0  0  0  0  0  0  0  0  0  0  0
   38.9931   -1.1767   84.5371 C   0  0  0  0  0  0  0  0  0  0  0  0
   39.8086   -1.5353   85.7761 C   0  0  2  0  0  0  0  0  0  0  0  0
   40.6803   -2.6452   85.6520 N   0  0  0  0  0  0  0  0  0  0  0  0
   40.3285   -3.8477   85.0063 C   0  0  0  0  0  0  0  0  0  0  0  0
   39.0951   -3.8504   84.5634 O   0  0  0  0  0  0  0  0  0  0  0  0
   41.0599   -5.0561   84.7303 C   0  0  0  0  0  0  0  0  0  0  0  0
   42.4047   -5.2726   85.0803 N   0  0  0  0  0  0  0  0  0  0  0  0
   43.5376   -4.5116   84.7326 C   0  0  0  0  0  0  0  0  0  0  0  0
   43.3099   -3.4517   84.0416 O   0  0  0  0  0  0  0  0  0  0  0  0
   44.9354   -4.7738   85.0436 C   0  0  2  0  0  0  0  0  0  0  0  0
   45.2505   -5.6966   86.1753 C   0  0  0  0  0  0  0  0  0  0  0  0
   46.7558   -5.7621   86.3387 C   0  0  0  0  0  0  0  0  0  0  0  0
   47.2350   -6.7872   87.3168 C   0  0  0  0  0  0  0  0  0  0  0  0
   46.8895   -8.1258   86.7981 N   0  0  0  0  0  0  0  0  0  0  0  0
   47.3321   -9.3056   87.4392 C   0  0  0  0  0  0  0  0  0  0  0  0
   46.9373  -10.5444   86.8286 N   0  0  0  0  0  0  0  0  0  0  0  0
   48.0762   -9.3043   88.5335 N   0  0  0  0  0  0  0  0  0  0  0  0
   45.7728   -3.6442   84.9746 N   0  0  0  0  0  0  0  0  0  0  0  0
   46.8162   -3.4015   84.0300 C   0  0  0  0  0  0  0  0  0  0  0  0
   46.9819   -4.3288   83.1684 O   0  0  0  0  0  0  0  0  0  0  0  0
   47.6425   -2.1874   84.0440 C   0  0  1  0  0  0  0  0  0  0  0  0
   48.7184   -2.2676   83.0719 N   0  0  0  0  0  0  0  0  0  0  0  0
   46.8163   -0.9589   83.6664 C   0  0  0  0  0  0  0  0  0  0  0  0
   47.6812    0.1441   83.7266 O   0  0  0  0  0  0  0  0  0  0  0  0
   38.8876   -1.4166   86.9072 C   0  0  0  0  0  0  0  0  0  0  0  0
   38.0792   -0.4201   86.8511 O   0  0  0  0  0  0  0  0  0  0  0  0
   38.7590   -2.2373   88.0417 N   0  0  0  0  0  0  0  0  0  0  0  0
   37.7237   -1.8963   89.0159 C   0  0  1  0  0  0  0  0  0  0  0  0
   36.7565   -3.0659   89.1384 C   0  0  0  0  0  0  0  0  0  0  0  0
   35.6871   -2.7940   90.1301 C   0  0  0  0  0  0  0  0  0  0  0  0
   34.7514   -3.9896   90.1451 C   0  0  0  0  0  0  0  0  0  0  0  0
   33.7458   -4.0564   89.4102 O   0  0  0  0  0  0  0  0  0  0  0  0
   35.0352   -5.0511   91.0125 O   0  0  0  0  0  0  0  0  0  0  0  0
   38.2207   -1.3870   90.2983 C   0  0  0  0  0  0  0  0  0  0  0  0
   37.3848   -0.9298   91.1551 O   0  0  0  0  0  0  0  0  0  0  0  0
   39.5741   -1.3551   90.7064 N   0  0  0  0  0  0  0  0  0  0  0  0
   39.9907   -0.8437   92.0283 C   0  0  2  0  0  0  0  0  0  0  0  0
   41.2284   -0.0986   91.8755 C   0  0  0  0  0  0  0  0  0  0  0  0
   41.6690    0.0693   90.6930 O   0  0  0  0  0  0  0  0  0  0  0  0
   42.0234    0.4582   92.9093 N   0  0  0  0  0  0  0  0  0  0  0  0
   43.3101    1.1308   92.5688 C   0  0  1  0  0  0  0  0  0  0  0  0
   43.2586    2.5193   93.1042 C   0  0  0  0  0  0  0  0  0  0  0  0
   43.1176    2.5906   94.4893 O   0  0  0  0  0  0  0  0  0  0  0  0
   44.4104    0.2980   93.1563 C   0  0  0  0  0  0  0  0  0  0  0  0
   44.0723   -0.5544   94.0079 O   0  0  0  0  0  0  0  0  0  0  0  0
   45.8003    0.3977   92.8172 N   0  0  0  0  0  0  0  0  0  0  0  0
   46.6595   -0.5683   93.4950 C   0  0  1  0  0  0  0  0  0  0  0  0
   47.4986   -0.1377   94.5681 C   0  0  0  0  0  0  0  0  0  0  0  0
   48.5243    0.8540   94.1011 C   0  0  0  0  0  0  0  0  0  0  0  0
   48.7303    1.3021   92.7849 C   0  0  0  0  0  0  0  0  0  0  0  0
   49.8411    2.2055   92.8839 N   0  0  0  0  0  0  0  0  0  0  0  0
   50.1988    2.2441   94.1441 C   0  0  0  0  0  0  0  0  0  0  0  0
   49.4434    1.4521   94.9163 N   0  0  0  0  0  0  0  0  0  0  0  0
   45.8213   -1.8172   93.6726 C   0  0  0  0  0  0  0  0  0  0  0  0
   45.7242   -2.4799   94.6989 O   0  0  0  0  0  0  0  0  0  0  0  0
   45.1046   -2.2062   92.4951 N   0  0  0  0  0  0  0  0  0  0  0  0
   44.1998   -3.2576   92.3120 C   0  0  1  0  0  0  0  0  0  0  0  0
   43.5158   -3.0918   90.9476 C   0  0  0  0  0  0  0  0  0  0  0  0
   44.5290   -3.0966   89.8156 C   0  0  0  0  0  0  0  0  0  0  0  0
   43.7534   -2.9477   88.5372 C   0  0  0  0  0  0  0  0  0  0  0  0
   43.0368   -1.7554   88.3309 N   0  0  0  0  0  0  0  0  0  0  0  0
   43.4925   -0.4566   88.0589 C   0  0  0  0  0  0  0  0  0  0  0  0
   42.6562    0.6843   87.8883 N   0  0  0  0  0  0  0  0  0  0  0  0
   44.7589   -0.2518   87.9665 N   0  0  0  0  0  0  0  0  0  0  0  0
   44.6161   -4.6675   92.4212 C   0  0  0  0  0  0  0  0  0  0  0  0
   45.7993   -5.0725   92.5465 O   0  0  0  0  0  0  0  0  0  0  0  0
   43.5913   -5.6556   92.3938 N   0  0  0  0  0  0  0  0  0  0  0  0
   43.6367   -7.0301   92.4909 C   0  0  1  0  0  0  0  0  0  0  0  0
   44.1864   -7.9228   91.4332 C   0  0  0  0  0  0  0  0  0  0  0  0
   43.3969   -7.8825   90.1649 C   0  0  0  0  0  0  0  0  0  0  0  0
   43.9782   -8.7957   89.1037 C   0  0  0  0  0  0  0  0  0  0  0  0
   43.0323   -6.5519   89.6258 C   0  0  0  0  0  0  0  0  0  0  0  0
   43.9624   -7.5970   93.7861 C   0  0  0  0  0  0  0  0  0  0  0  0
   43.8516   -8.9133   93.8191 O   0  0  0  0  0  0  0  0  0  0  0  0
   44.3669   -7.0352   94.9992 N   0  0  0  0  0  0  0  0  0  0  0  0
   44.5432   -7.9384   96.1149 C   0  0  1  0  0  0  0  0  0  0  0  0
   45.9800   -8.5431   95.9970 C   0  0  0  0  0  0  0  0  0  0  0  0
   44.3866   -7.3940   97.4555 C   0  0  0  0  0  0  0  0  0  0  0  0
   43.7390   -8.1262   98.2985 O   0  0  0  0  0  0  0  0  0  0  0  0
   44.8641   -6.1626   97.9563 N   0  0  0  0  0  0  0  0  0  0  0  0
   45.7147   -5.1589   97.3562 C   0  0  0  0  0  0  0  0  0  0  0  0
   46.7454   -4.9139   98.4657 C   0  0  0  0  0  0  0  0  0  0  0  0
   46.1411   -5.5192   99.7166 C   0  0  0  0  0  0  0  0  0  0  0  0
   44.6209   -5.6402   99.3091 C   0  0  1  0  0  0  0  0  0  0  0  0
   44.1097   -4.2956   99.4478 C   0  0  0  0  0  0  0  0  0  0  0  0
   44.7940   -3.3256   99.0373 O   0  0  0  0  0  0  0  0  0  0  0  0
   42.8308   -3.9060  100.0433 N   0  0  0  0  0  0  0  0  0  0  0  0
   42.6730   -2.4686  100.0886 C   0  0  1  0  0  0  0  0  0  0  0  0
   42.1408   -1.7353   98.9783 C   0  0  0  0  0  0  0  0  0  0  0  0
   40.7994   -1.8002   98.3999 C   0  0  0  0  0  0  0  0  0  0  0  0
   40.0301   -0.6629   98.3289 C   0  0  0  0  0  0  0  0  0  0  0  0
   38.9295   -0.9745   97.5669 N   0  0  0  0  0  0  0  0  0  0  0  0
   39.0462   -2.2882   97.1959 C   0  0  0  0  0  0  0  0  0  0  0  0
   38.1137   -2.9652   96.4087 C   0  0  0  0  0  0  0  0  0  0  0  0
   38.5226   -4.3180   96.2159 C   0  0  0  0  0  0  0  0  0  0  0  0
   39.6132   -4.8700   96.6916 C   0  0  0  0  0  0  0  0  0  0  0  0
   40.5292   -4.1613   97.4690 C   0  0  0  0  0  0  0  0  0  0  0  0
   40.2110   -2.8479   97.7058 C   0  0  0  0  0  0  0  0  0  0  0  0
   41.9555   -2.1494  101.3811 C   0  0  0  0  0  0  0  0  0  0  0  0
   42.1395   -0.9672  101.7888 O   0  0  0  0  0  0  0  0  0  0  0  0
   41.1820   -3.0841  102.0283 O   0  0  0  0  0  0  0  0  0  0  0  0
   40.2115   -2.1457   92.8036 C   0  0  0  0  0  0  0  0  0  0  0  0
   38.9023   -2.8897   92.8231 C   0  0  0  0  0  0  0  0  0  0  0  0
   40.6731   -1.9575   94.2024 C   0  0  0  0  0  0  0  0  0  0  0  0
  1  2  1  0
  2  3  1  0
  2  4  1  0
  5  4  1  6
  5  6  1  0
  6  7  1  0
  7  8  2  0
  7  9  1  0
  9 10  1  0
 10 11  1  0
 11 12  2  0
 11 13  1  0
 13 14  1  1
 14 15  1  0
 15 16  1  0
 16 17  1  0
 17 18  1  0
 18 19  1  0
 18 20  2  0
 13 21  1  0
 21 22  1  0
 22 23  2  0
 22 24  1  0
 24 25  1  6
 24 26  1  0
 26 27  1  0
  5 28  1  0
 28 29  2  0
 28 30  1  0
 30 31  1  0
 31 32  1  1
 32 33  1  0
 33 34  1  0
 34 35  2  0
 34 36  1  0
 31 37  1  0
 37 38  2  0
 37 39  1  0
 40 39  1  6
 40 41  1  0
 41 42  2  0
 41 43  1  0
 43 44  1  0
 44 45  1  1
 45 46  1  0
 44 47  1  0
 47 48  2  0
 47 49  1  0
 49 50  1  0
 50 51  1  1
 51 52  1  0
 52 53  2  0
 53 54  1  0
 54 55  1  0
 55 56  2  0
 50 57  1  0
 57 58  2  0
 57 59  1  0
 59 60  1  0
 60 61  1  6
 61 62  1  0
 62 63  1  0
 63 64  1  0
 64 65  1  0
 65 66  1  0
 65 67  2  0
 60 68  1  0
 68 69  2  0
 68 70  1  0
 70 71  1  0
 71 72  1  6
 72 73  1  0
 73 74  1  0
 73 75  1  0
 71 76  1  0
 76 77  2  0
 76 78  1  0
 78 79  1  0
 79 80  1  1
 79 81  1  0
 81 82  2  0
 81 83  1  0
 83 84  1  0
 84 85  1  0
 85 86  1  0
 86 87  1  0
 87 88  1  6
 88 89  2  0
 88 90  1  0
 90 91  1  0
 91 92  1  6
 92 93  1  0
 93 94  2  0
 94 95  1  0
 95 96  1  0
 96 97  2  0
 97 98  1  0
 98 99  2  0
 99100  1  0
100101  2  0
 91102  1  0
102103  2  0
102104  1  0
 40105  1  0
105106  1  0
105107  1  0
 56 52  1  0
 87 83  1  0
101 93  1  0
101 96  1  0
M  CHG  5  20   1  25   1  36  -1  67   1 104  -1
M  END
>  <shape_align_shape_tanimoto>  (3) 
0.15931098106935462

>  <shape_align_color_tanimoto>  (3) 
0.021777582315543369

>  <metric>  (3) 
combo

>  <metric_score>  (3) 
0.091

>  <template_pid>  (3) 
4M7C

>  <template_shape_score>  (3) 
0.159

>  <template_color_score>  (3) 
0.022

>  <template_combo_score>  (3) 
0.091

$$$$
