6QQV_shape_pose
     RDKit          3D

 24 27  0  0  0  0  0  0  0  0999 V2000
   21.8880   22.3816   25.7424 N   0  0  0  0  0  0  0  0  0  0  0  0
   21.7442   22.5952   26.8590 C   0  0  0  0  0  0  0  0  0  0  0  0
   21.5539   22.8383   28.2486 C   0  0  0  0  0  0  0  0  0  0  0  0
   21.6270   21.7284   29.0881 C   0  0  0  0  0  0  0  0  0  0  0  0
   21.4440   21.8575   30.4445 C   0  0  0  0  0  0  0  0  0  0  0  0
   21.1880   23.1249   30.9214 C   0  0  0  0  0  0  0  0  0  0  0  0
   21.1170   24.2139   30.0929 C   0  0  0  0  0  0  0  0  0  0  0  0
   21.3023   24.1062   28.6924 C   0  0  0  0  0  0  0  0  0  0  0  0
   21.2136   25.3302   27.9430 C   0  0  0  0  0  0  0  0  0  0  0  0
   22.3785   26.0056   27.5014 N   0  0  0  0  0  0  0  0  0  0  0  0
   23.1322   26.7734   28.3646 C   0  0  0  0  0  0  0  0  0  0  0  0
   24.2255   27.2671   27.7450 C   0  0  0  0  0  0  0  0  0  0  0  0
   24.1917   26.8173   26.4479 C   0  0  0  0  0  0  0  0  0  0  0  0
   25.0564   27.0403   25.3958 C   0  0  0  0  0  0  0  0  0  0  0  0
   24.7273   26.4501   24.1761 C   0  0  0  0  0  0  0  0  0  0  0  0
   23.5840   25.6784   24.0358 C   0  0  0  0  0  0  0  0  0  0  0  0
   23.2315   25.0564   22.7571 C   0  0  0  0  0  0  0  0  0  0  0  0
   24.0018   25.1868   21.6018 C   0  0  0  0  0  0  0  0  0  0  0  0
   23.3287   24.4585   20.6350 C   0  0  0  0  0  0  0  0  0  0  0  0
   23.7392   24.2947   19.2698 N   0  0  0  0  0  0  0  0  0  0  0  0
   22.2163   23.9266   21.1987 N   0  0  0  0  0  0  0  0  0  0  0  0
   22.1679   24.2912   22.4705 N   0  0  0  0  0  0  0  0  0  0  0  0
   22.7662   25.4984   25.1324 C   0  0  0  0  0  0  0  0  0  0  0  0
   23.0504   26.0556   26.3471 C   0  0  0  0  0  0  0  0  0  0  0  0
  1  2  3  0
  2  3  1  0
  3  4  2  0
  4  5  1  0
  5  6  2  0
  6  7  1  0
  7  8  2  0
  8  9  1  0
  9 10  1  0
 10 11  1  0
 11 12  2  0
 12 13  1  0
 13 14  2  0
 14 15  1  0
 15 16  2  0
 16 17  1  0
 17 18  2  0
 18 19  1  0
 19 20  1  0
 19 21  2  0
 21 22  1  0
 16 23  1  0
 23 24  2  0
  8  3  1  0
 24 10  1  0
 24 13  1  0
 22 17  1  0
M  END
>  <shape_align_shape_tanimoto>  (1) 
0.7028215584436015

>  <shape_align_color_tanimoto>  (1) 
0.077965999862551219

>  <metric>  (1) 
shape

>  <metric_score>  (1) 
0.703

>  <template_pid>  (1) 
6QQV

>  <template_shape_score>  (1) 
0.703

>  <template_color_score>  (1) 
0.078

>  <template_combo_score>  (1) 
0.390

$$$$
6QQV_color_pose
     RDKit          3D

 24 27  0  0  0  0  0  0  0  0999 V2000
   22.0340   22.4576   25.6067 N   0  0  0  0  0  0  0  0  0  0  0  0
   21.8559   22.6418   26.7200 C   0  0  0  0  0  0  0  0  0  0  0  0
   21.6322   22.8444   28.0926 C   0  0  0  0  0  0  0  0  0  0  0  0
   21.7863   21.7463   28.9416 C   0  0  0  0  0  0  0  0  0  0  0  0
   21.5690   21.8365   30.2999 C   0  0  0  0  0  0  0  0  0  0  0  0
   21.1905   23.0650   30.7903 C   0  0  0  0  0  0  0  0  0  0  0  0
   21.0420   24.1326   29.9597 C   0  0  0  0  0  0  0  0  0  0  0  0
   21.2610   24.0542   28.5697 C   0  0  0  0  0  0  0  0  0  0  0  0
   21.0767   25.3129   27.8300 C   0  0  0  0  0  0  0  0  0  0  0  0
   22.2871   26.0287   27.5147 N   0  0  0  0  0  0  0  0  0  0  0  0
   22.9394   26.7570   28.4711 C   0  0  0  0  0  0  0  0  0  0  0  0
   24.0984   27.2857   27.9515 C   0  0  0  0  0  0  0  0  0  0  0  0
   24.1718   26.8791   26.6379 C   0  0  0  0  0  0  0  0  0  0  0  0
   25.0913   27.1076   25.6113 C   0  0  0  0  0  0  0  0  0  0  0  0
   24.8970   26.5761   24.3396 C   0  0  0  0  0  0  0  0  0  0  0  0
   23.7630   25.8173   24.1335 C   0  0  0  0  0  0  0  0  0  0  0  0
   23.4948   25.2309   22.8230 C   0  0  0  0  0  0  0  0  0  0  0  0
   22.4075   24.4610   22.4740 C   0  0  0  0  0  0  0  0  0  0  0  0
   22.5108   24.0953   21.1488 C   0  0  0  0  0  0  0  0  0  0  0  0
   21.5664   23.2930   20.4235 N   0  0  0  0  0  0  0  0  0  0  0  0
   23.6554   24.6458   20.7113 N   0  0  0  0  0  0  0  0  0  0  0  0
   24.2406   25.3211   21.7068 N   0  0  0  0  0  0  0  0  0  0  0  0
   22.8693   25.6038   25.1606 C   0  0  0  0  0  0  0  0  0  0  0  0
   23.0422   26.1166   26.4238 C   0  0  0  0  0  0  0  0  0  0  0  0
  1  2  3  0
  2  3  1  0
  3  4  2  0
  4  5  1  0
  5  6  2  0
  6  7  1  0
  7  8  2  0
  8  9  1  0
  9 10  1  0
 10 11  1  0
 11 12  2  0
 12 13  1  0
 13 14  2  0
 14 15  1  0
 15 16  2  0
 16 17  1  0
 17 18  2  0
 18 19  1  0
 19 20  1  0
 19 21  2  0
 21 22  1  0
 16 23  1  0
 23 24  2  0
  8  3  1  0
 24 10  1  0
 24 13  1  0
 22 17  1  0
M  END
>  <shape_align_shape_tanimoto>  (2) 
0.69826903487145509

>  <shape_align_color_tanimoto>  (2) 
0.10519995842293438

>  <metric>  (2) 
color

>  <metric_score>  (2) 
0.105

>  <template_pid>  (2) 
6QQV

>  <template_shape_score>  (2) 
0.698

>  <template_color_score>  (2) 
0.105

>  <template_combo_score>  (2) 
0.402

$$$$
6QQV_combo_pose
     RDKit          3D

 24 27  0  0  0  0  0  0  0  0999 V2000
   22.0001   22.4581   25.5762 N   0  0  0  0  0  0  0  0  0  0  0  0
   21.8361   22.6439   26.6936 C   0  0  0  0  0  0  0  0  0  0  0  0
   21.6241   22.8511   28.0839 C   0  0  0  0  0  0  0  0  0  0  0  0
   21.7758   21.7333   28.9078 C   0  0  0  0  0  0  0  0  0  0  0  0
   21.5722   21.8318   30.2505 C   0  0  0  0  0  0  0  0  0  0  0  0
   21.2155   23.0590   30.7611 C   0  0  0  0  0  0  0  0  0  0  0  0
   21.0678   24.1561   29.9472 C   0  0  0  0  0  0  0  0  0  0  0  0
   21.2742   24.0783   28.5510 C   0  0  0  0  0  0  0  0  0  0  0  0
   21.1060   25.3219   27.8142 C   0  0  0  0  0  0  0  0  0  0  0  0
   22.3123   26.0324   27.4781 N   0  0  0  0  0  0  0  0  0  0  0  0
   22.9795   26.7679   28.4231 C   0  0  0  0  0  0  0  0  0  0  0  0
   24.1262   27.2914   27.8982 C   0  0  0  0  0  0  0  0  0  0  0  0
   24.1912   26.8810   26.5864 C   0  0  0  0  0  0  0  0  0  0  0  0
   25.0862   27.0947   25.5555 C   0  0  0  0  0  0  0  0  0  0  0  0
   24.8643   26.5475   24.2929 C   0  0  0  0  0  0  0  0  0  0  0  0
   23.7400   25.7868   24.0746 C   0  0  0  0  0  0  0  0  0  0  0  0
   23.4745   25.1990   22.7663 C   0  0  0  0  0  0  0  0  0  0  0  0
   22.3606   24.4245   22.4619 C   0  0  0  0  0  0  0  0  0  0  0  0
   22.5016   24.0761   21.1278 C   0  0  0  0  0  0  0  0  0  0  0  0
   21.5562   23.2751   20.4294 N   0  0  0  0  0  0  0  0  0  0  0  0
   23.6470   24.6303   20.6959 N   0  0  0  0  0  0  0  0  0  0  0  0
   24.2443   25.3089   21.6690 N   0  0  0  0  0  0  0  0  0  0  0  0
   22.8765   25.5985   25.1264 C   0  0  0  0  0  0  0  0  0  0  0  0
   23.0565   26.1146   26.3808 C   0  0  0  0  0  0  0  0  0  0  0  0
  1  2  3  0
  2  3  1  0
  3  4  2  0
  4  5  1  0
  5  6  2  0
  6  7  1  0
  7  8  2  0
  8  9  1  0
  9 10  1  0
 10 11  1  0
 11 12  2  0
 12 13  1  0
 13 14  2  0
 14 15  1  0
 15 16  2  0
 16 17  1  0
 17 18  2  0
 18 19  1  0
 19 20  1  0
 19 21  2  0
 21 22  1  0
 16 23  1  0
 23 24  2  0
  8  3  1  0
 24 10  1  0
 24 13  1  0
 22 17  1  0
M  END
>  <shape_align_shape_tanimoto>  (3) 
0.69930028187950488

>  <shape_align_color_tanimoto>  (3) 
0.10458346905118701

>  <metric>  (3) 
combo

>  <metric_score>  (3) 
0.402

>  <template_pid>  (3) 
6QQV

>  <template_shape_score>  (3) 
0.699

>  <template_color_score>  (3) 
0.105

>  <template_combo_score>  (3) 
0.402

$$$$
