4X1N_shape_pose
     RDKit          3D

 76 79  0  0  0  0  0  0  0  0999 V2000
    4.7673  -31.6343  -11.6626 C   0  0  0  0  0  0  0  0  0  0  0  0
    3.7930  -30.6363  -10.9563 C   0  0  0  0  0  0  0  0  0  0  0  0
    3.1725  -31.4161   -9.8278 C   0  0  0  0  0  0  0  0  0  0  0  0
    2.8391  -30.1853  -12.0069 C   0  0  0  0  0  0  0  0  0  0  0  0
    1.7796  -29.1909  -11.4633 C   0  0  2  0  0  0  0  0  0  0  0  0
    0.8879  -28.8152  -12.5626 N   0  0  0  0  0  0  0  0  0  0  0  0
   -0.3493  -29.5665  -12.7134 C   0  0  0  0  0  0  0  0  0  0  0  0
   -0.5314  -30.4323  -11.8187 O   0  0  0  0  0  0  0  0  0  0  0  0
   -1.3516  -29.4115  -13.7661 C   0  0  2  0  0  0  0  0  0  0  0  0
   -1.5398  -30.7620  -14.5436 C   0  0  0  0  0  0  0  0  0  0  0  0
   -0.2981  -31.2226  -15.1841 C   0  0  0  0  0  0  0  0  0  0  0  0
    0.6046  -32.0616  -14.5383 C   0  0  0  0  0  0  0  0  0  0  0  0
    1.7910  -32.5027  -15.1399 C   0  0  0  0  0  0  0  0  0  0  0  0
    2.1245  -32.1124  -16.4354 C   0  0  0  0  0  0  0  0  0  0  0  0
    3.2788  -32.5117  -17.0862 O   0  0  0  0  0  0  0  0  0  0  0  0
    1.2241  -31.2645  -17.1033 C   0  0  0  0  0  0  0  0  0  0  0  0
    0.0436  -30.8348  -16.4858 C   0  0  0  0  0  0  0  0  0  0  0  0
   -1.1333  -28.3549  -14.7487 N   0  0  0  0  0  0  0  0  0  0  0  0
   -2.2904  -27.6742  -15.3416 C   0  0  0  0  0  0  0  0  0  0  0  0
   -3.3872  -28.1090  -14.9325 O   0  0  0  0  0  0  0  0  0  0  0  0
   -2.1374  -26.5715  -16.3404 C   0  0  2  0  0  0  0  0  0  0  0  0
   -2.7725  -26.9722  -17.6450 C   0  0  0  0  0  0  0  0  0  0  0  0
   -0.7123  -26.2197  -16.5173 N   0  0  0  0  0  0  0  0  0  0  0  0
   -0.2494  -24.9595  -16.0284 C   0  0  0  0  0  0  0  0  0  0  0  0
   -1.1099  -24.2214  -15.5016 O   0  0  0  0  0  0  0  0  0  0  0  0
    1.1552  -24.4587  -16.0912 C   0  0  2  0  0  0  0  0  0  0  0  0
    2.1089  -25.4219  -15.3522 C   0  0  0  0  0  0  0  0  0  0  0  0
    2.1254  -26.6432  -16.0177 O   0  0  0  0  0  0  0  0  0  0  0  0
    1.1163  -23.1645  -15.4120 N   0  0  0  0  0  0  0  0  0  0  0  0
    1.8450  -21.9977  -15.8065 C   0  0  0  0  0  0  0  0  0  0  0  0
    2.5991  -22.1255  -16.7835 O   0  0  0  0  0  0  0  0  0  0  0  0
    1.6256  -20.7612  -15.0001 C   0  0  2  0  0  0  0  0  0  0  0  0
    0.2189  -20.2721  -15.4534 C   0  0  0  0  0  0  0  0  0  0  0  0
   -0.2048  -19.0388  -14.7641 C   0  0  0  0  0  0  0  0  0  0  0  0
    0.1048  -17.7672  -15.2565 C   0  0  0  0  0  0  0  0  0  0  0  0
   -0.3378  -16.6387  -14.5485 C   0  0  0  0  0  0  0  0  0  0  0  0
   -1.0728  -16.7433  -13.3760 C   0  0  0  0  0  0  0  0  0  0  0  0
   -1.5020  -15.6194  -12.6889 O   0  0  0  0  0  0  0  0  0  0  0  0
   -1.3782  -18.0074  -12.8909 C   0  0  0  0  0  0  0  0  0  0  0  0
   -0.9367  -19.1152  -13.5968 C   0  0  0  0  0  0  0  0  0  0  0  0
    2.5512  -19.6711  -15.2725 N   0  0  0  0  0  0  0  0  0  0  0  0
    3.2661  -19.1417  -14.1475 C   0  0  0  0  0  0  0  0  0  0  0  0
    3.0413  -19.6856  -13.0464 O   0  0  0  0  0  0  0  0  0  0  0  0
    4.2445  -18.0109  -14.1784 C   0  0  2  0  0  0  0  0  0  0  0  0
    5.4538  -18.4162  -15.0036 C   0  0  0  0  0  0  0  0  0  0  0  0
    4.6855  -17.8613  -12.7648 N   0  0  0  0  0  0  0  0  0  0  0  0
    4.3685  -16.6724  -11.9977 C   0  0  0  0  0  0  0  0  0  0  0  0
    3.7542  -15.7937  -12.6241 O   0  0  0  0  0  0  0  0  0  0  0  0
    4.7790  -16.5580  -10.5388 C   0  0  2  0  0  0  0  0  0  0  0  0
    6.1189  -15.9235  -10.4174 C   0  0  0  0  0  0  0  0  0  0  0  0
    7.0776  -17.0854  -10.2418 C   0  0  0  0  0  0  0  0  0  0  0  0
    6.1997  -18.1349   -9.5487 C   0  0  0  0  0  0  0  0  0  0  0  0
    4.8665  -17.9319   -9.9651 N   0  0  0  0  0  0  0  0  0  0  0  0
    3.6931  -18.7320   -9.9369 C   0  0  0  0  0  0  0  0  0  0  0  0
    2.6678  -18.1503  -10.3920 O   0  0  0  0  0  0  0  0  0  0  0  0
    3.5481  -20.1216   -9.4498 C   0  0  1  0  0  0  0  0  0  0  0  0
    4.7057  -20.7144   -8.8353 N   0  0  0  0  0  0  0  0  0  0  0  0
    2.3181  -20.2680   -8.5177 C   0  0  0  0  0  0  0  0  0  0  0  0
    0.8640  -19.8080   -9.4536 S   0  0  0  0  0  0  0  0  0  0  0  0
    0.5046  -21.2408  -10.9934 S   0  0  0  0  0  0  0  0  0  0  0  0
   -0.5774  -22.5287  -10.3727 C   0  0  0  0  0  0  0  0  0  0  0  0
    0.0118  -23.5426   -9.4435 C   0  0  1  0  0  0  0  0  0  0  0  0
   -1.1295  -24.2993   -8.8063 C   0  0  0  0  0  0  0  0  0  0  0  0
   -2.3196  -24.2334   -9.2377 O   0  0  0  0  0  0  0  0  0  0  0  0
   -0.8876  -25.1185   -7.6855 O   0  0  0  0  0  0  0  0  0  0  0  0
    0.8530  -24.5295  -10.1664 N   0  0  0  0  0  0  0  0  0  0  0  0
    2.2767  -24.6178  -10.0283 C   0  0  0  0  0  0  0  0  0  0  0  0
    2.7866  -23.7559   -9.2806 O   0  0  0  0  0  0  0  0  0  0  0  0
    3.1391  -25.6238  -10.6955 C   0  0  2  0  0  0  0  0  0  0  0  0
    4.1145  -25.0079  -11.7050 C   0  0  0  0  0  0  0  0  0  0  0  0
    5.0770  -24.0567  -11.1348 C   0  0  0  0  0  0  0  0  0  0  0  0
    5.7452  -23.3186  -11.9428 O   0  0  0  0  0  0  0  0  0  0  0  0
    5.3412  -23.8763   -9.7737 O   0  0  0  0  0  0  0  0  0  0  0  0
    2.3162  -26.6300  -11.3568 N   0  0  0  0  0  0  0  0  0  0  0  0
    2.4329  -28.0135  -10.9109 C   0  0  0  0  0  0  0  0  0  0  0  0
    3.2058  -28.1467   -9.9219 O   0  0  0  0  0  0  0  0  0  0  0  0
  1  2  1  0
  2  3  1  0
  2  4  1  0
  5  4  1  6
  5  6  1  0
  6  7  1  0
  7  8  2  0
  7  9  1  0
  9 10  1  6
 10 11  1  0
 11 12  2  0
 12 13  1  0
 13 14  2  0
 14 15  1  0
 14 16  1  0
 16 17  2  0
  9 18  1  0
 18 19  1  0
 19 20  2  0
 19 21  1  0
 21 22  1  6
 21 23  1  0
 23 24  1  0
 24 25  2  0
 24 26  1  0
 26 27  1  1
 27 28  1  0
 26 29  1  0
 29 30  1  0
 30 31  2  0
 30 32  1  0
 32 33  1  6
 33 34  1  0
 34 35  2  0
 35 36  1  0
 36 37  2  0
 37 38  1  0
 37 39  1  0
 39 40  2  0
 32 41  1  0
 41 42  1  0
 42 43  2  0
 42 44  1  0
 44 45  1  6
 44 46  1  0
 46 47  1  0
 47 48  2  0
 47 49  1  0
 49 50  1  6
 50 51  1  0
 51 52  1  0
 52 53  1  0
 53 54  1  0
 54 55  2  0
 54 56  1  0
 56 57  1  1
 56 58  1  0
 58 59  1  0
 59 60  1  0
 60 61  1  0
 61 62  1  0
 62 63  1  6
 63 64  2  0
 63 65  1  0
 62 66  1  0
 66 67  1  0
 67 68  2  0
 67 69  1  0
 69 70  1  6
 70 71  1  0
 71 72  2  0
 71 73  1  0
 69 74  1  0
 74 75  1  0
 75 76  2  0
 75  5  1  0
 17 11  1  0
 40 34  1  0
 53 49  1  0
M  CHG  3  57   1  65  -1  73  -1
M  END
>  <shape_align_shape_tanimoto>  (1) 
0.45426725114713268

>  <shape_align_color_tanimoto>  (1) 
0.024596551785633254

>  <metric>  (1) 
shape

>  <metric_score>  (1) 
0.454

>  <template_pid>  (1) 
4X1N

>  <template_shape_score>  (1) 
0.454

>  <template_color_score>  (1) 
0.025

>  <template_combo_score>  (1) 
0.239

$$$$
4X1N_color_pose
     RDKit          3D

 76 79  0  0  0  0  0  0  0  0999 V2000
    3.6030  -23.9987  -13.9648 C   0  0  0  0  0  0  0  0  0  0  0  0
    2.6041  -24.7969  -13.1380 C   0  0  0  0  0  0  0  0  0  0  0  0
    2.8894  -26.2315  -13.3644 C   0  0  0  0  0  0  0  0  0  0  0  0
    1.2095  -24.3208  -13.2356 C   0  0  0  0  0  0  0  0  0  0  0  0
    0.5679  -24.2935  -14.5555 C   0  0  2  0  0  0  0  0  0  0  0  0
    0.4791  -25.5637  -15.2267 N   0  0  0  0  0  0  0  0  0  0  0  0
   -0.5599  -25.7161  -16.2058 C   0  0  0  0  0  0  0  0  0  0  0  0
   -1.1874  -24.6690  -16.4539 O   0  0  0  0  0  0  0  0  0  0  0  0
   -0.9171  -26.9312  -16.9144 C   0  0  2  0  0  0  0  0  0  0  0  0
   -2.3922  -27.0805  -17.1348 C   0  0  0  0  0  0  0  0  0  0  0  0
   -3.2438  -27.1361  -15.9394 C   0  0  0  0  0  0  0  0  0  0  0  0
   -3.4351  -28.3946  -15.3477 C   0  0  0  0  0  0  0  0  0  0  0  0
   -4.2352  -28.5582  -14.2356 C   0  0  0  0  0  0  0  0  0  0  0  0
   -4.8517  -27.4267  -13.7139 C   0  0  0  0  0  0  0  0  0  0  0  0
   -5.6767  -27.4876  -12.5923 O   0  0  0  0  0  0  0  0  0  0  0  0
   -4.6716  -26.1955  -14.2839 C   0  0  0  0  0  0  0  0  0  0  0  0
   -3.8736  -26.0171  -15.3970 C   0  0  0  0  0  0  0  0  0  0  0  0
   -0.3313  -28.0730  -16.2411 N   0  0  0  0  0  0  0  0  0  0  0  0
    0.4407  -29.0494  -16.9405 C   0  0  0  0  0  0  0  0  0  0  0  0
    0.6310  -28.7987  -18.1413 O   0  0  0  0  0  0  0  0  0  0  0  0
    0.9984  -30.2802  -16.3705 C   0  0  2  0  0  0  0  0  0  0  0  0
    0.2400  -31.4878  -17.0717 C   0  0  0  0  0  0  0  0  0  0  0  0
    0.7933  -30.4618  -14.9412 N   0  0  0  0  0  0  0  0  0  0  0  0
    1.4557  -31.5758  -14.2942 C   0  0  0  0  0  0  0  0  0  0  0  0
    2.1065  -32.2875  -15.0866 O   0  0  0  0  0  0  0  0  0  0  0  0
    1.4116  -31.9013  -12.8943 C   0  0  2  0  0  0  0  0  0  0  0  0
    0.4200  -33.0975  -12.7965 C   0  0  0  0  0  0  0  0  0  0  0  0
    0.8090  -34.1209  -13.6295 O   0  0  0  0  0  0  0  0  0  0  0  0
    0.8400  -30.9465  -11.9701 N   0  0  0  0  0  0  0  0  0  0  0  0
    1.6213  -30.5425  -10.8079 C   0  0  0  0  0  0  0  0  0  0  0  0
    2.7365  -31.0339  -10.7568 O   0  0  0  0  0  0  0  0  0  0  0  0
    1.1088  -29.6122   -9.7909 C   0  0  2  0  0  0  0  0  0  0  0  0
    0.2758  -28.5135  -10.3723 C   0  0  0  0  0  0  0  0  0  0  0  0
   -0.2184  -27.5855   -9.3268 C   0  0  0  0  0  0  0  0  0  0  0  0
   -1.3701  -27.8949   -8.6274 C   0  0  0  0  0  0  0  0  0  0  0  0
   -1.8965  -27.0791   -7.6393 C   0  0  0  0  0  0  0  0  0  0  0  0
   -1.2423  -25.8933   -7.3310 C   0  0  0  0  0  0  0  0  0  0  0  0
   -1.7032  -25.0210   -6.3558 O   0  0  0  0  0  0  0  0  0  0  0  0
   -0.0926  -25.5478   -8.0040 C   0  0  0  0  0  0  0  0  0  0  0  0
    0.4081  -26.4012   -8.9981 C   0  0  0  0  0  0  0  0  0  0  0  0
    2.1741  -29.1974   -8.9162 N   0  0  0  0  0  0  0  0  0  0  0  0
    3.1234  -28.2187   -9.4161 C   0  0  0  0  0  0  0  0  0  0  0  0
    2.9498  -27.9056  -10.5872 O   0  0  0  0  0  0  0  0  0  0  0  0
    4.1999  -27.6304   -8.6377 C   0  0  2  0  0  0  0  0  0  0  0  0
    3.6825  -26.9354   -7.3703 C   0  0  0  0  0  0  0  0  0  0  0  0
    4.8210  -26.6352   -9.4948 N   0  0  0  0  0  0  0  0  0  0  0  0
    6.2271  -26.2973   -9.4030 C   0  0  0  0  0  0  0  0  0  0  0  0
    6.8224  -26.9289   -8.5227 O   0  0  0  0  0  0  0  0  0  0  0  0
    6.7983  -25.2923  -10.3101 C   0  0  2  0  0  0  0  0  0  0  0  0
    8.1962  -25.7166  -10.6693 C   0  0  0  0  0  0  0  0  0  0  0  0
    9.0766  -24.6698  -10.1001 C   0  0  0  0  0  0  0  0  0  0  0  0
    8.1427  -23.4583  -10.0436 C   0  0  0  0  0  0  0  0  0  0  0  0
    6.8577  -23.9880   -9.6994 N   0  0  0  0  0  0  0  0  0  0  0  0
    5.8577  -23.4065   -8.8835 C   0  0  0  0  0  0  0  0  0  0  0  0
    4.9460  -24.1937   -8.5728 O   0  0  0  0  0  0  0  0  0  0  0  0
    5.7755  -22.0363   -8.3700 C   0  0  1  0  0  0  0  0  0  0  0  0
    6.6034  -21.1030   -9.0881 N   0  0  0  0  0  0  0  0  0  0  0  0
    4.3360  -21.5081   -8.4775 C   0  0  0  0  0  0  0  0  0  0  0  0
    3.6988  -21.7324  -10.1300 S   0  0  0  0  0  0  0  0  0  0  0  0
    4.7576  -20.8219  -11.6571 S   0  0  0  0  0  0  0  0  0  0  0  0
    4.2382  -19.1788  -12.0359 C   0  0  0  0  0  0  0  0  0  0  0  0
    2.8651  -18.9868  -12.5638 C   0  0  1  0  0  0  0  0  0  0  0  0
    2.7560  -17.5388  -13.0700 C   0  0  0  0  0  0  0  0  0  0  0  0
    1.6402  -16.9698  -13.1045 O   0  0  0  0  0  0  0  0  0  0  0  0
    3.9209  -16.9018  -13.4795 O   0  0  0  0  0  0  0  0  0  0  0  0
    2.3880  -19.8761  -13.5500 N   0  0  0  0  0  0  0  0  0  0  0  0
    1.7663  -19.5747  -14.8114 C   0  0  0  0  0  0  0  0  0  0  0  0
    1.7922  -18.3932  -15.1365 O   0  0  0  0  0  0  0  0  0  0  0  0
    1.1525  -20.6227  -15.6595 C   0  0  2  0  0  0  0  0  0  0  0  0
   -0.0343  -20.1321  -16.4626 C   0  0  0  0  0  0  0  0  0  0  0  0
    0.3742  -19.0884  -17.3973 C   0  0  0  0  0  0  0  0  0  0  0  0
    1.5342  -18.6578  -17.6056 O   0  0  0  0  0  0  0  0  0  0  0  0
   -0.6306  -18.4743  -18.1724 O   0  0  0  0  0  0  0  0  0  0  0  0
    0.8368  -21.8414  -14.9382 N   0  0  0  0  0  0  0  0  0  0  0  0
    1.0064  -23.1614  -15.4316 C   0  0  0  0  0  0  0  0  0  0  0  0
    1.4959  -23.2675  -16.5446 O   0  0  0  0  0  0  0  0  0  0  0  0
  1  2  1  0
  2  3  1  0
  2  4  1  0
  5  4  1  1
  5  6  1  0
  6  7  1  0
  7  8  2  0
  7  9  1  0
  9 10  1  1
 10 11  1  0
 11 12  2  0
 12 13  1  0
 13 14  2  0
 14 15  1  0
 14 16  1  0
 16 17  2  0
  9 18  1  0
 18 19  1  0
 19 20  2  0
 19 21  1  0
 21 22  1  6
 21 23  1  0
 23 24  1  0
 24 25  2  0
 24 26  1  0
 26 27  1  6
 27 28  1  0
 26 29  1  0
 29 30  1  0
 30 31  2  0
 30 32  1  0
 32 33  1  6
 33 34  1  0
 34 35  2  0
 35 36  1  0
 36 37  2  0
 37 38  1  0
 37 39  1  0
 39 40  2  0
 32 41  1  0
 41 42  1  0
 42 43  2  0
 42 44  1  0
 44 45  1  1
 44 46  1  0
 46 47  1  0
 47 48  2  0
 47 49  1  0
 49 50  1  1
 50 51  1  0
 51 52  1  0
 52 53  1  0
 53 54  1  0
 54 55  2  0
 54 56  1  0
 56 57  1  6
 56 58  1  0
 58 59  1  0
 59 60  1  0
 60 61  1  0
 61 62  1  0
 62 63  1  6
 63 64  2  0
 63 65  1  0
 62 66  1  0
 66 67  1  0
 67 68  2  0
 67 69  1  0
 69 70  1  1
 70 71  1  0
 71 72  2  0
 71 73  1  0
 69 74  1  0
 74 75  1  0
 75 76  2  0
 75  5  1  0
 17 11  1  0
 40 34  1  0
 53 49  1  0
M  CHG  3  57   1  65  -1  73  -1
M  END
>  <shape_align_shape_tanimoto>  (2) 
0.35105797785665954

>  <shape_align_color_tanimoto>  (2) 
0.059747983878339885

>  <metric>  (2) 
color

>  <metric_score>  (2) 
0.060

>  <template_pid>  (2) 
4X1N

>  <template_shape_score>  (2) 
0.351

>  <template_color_score>  (2) 
0.060

>  <template_combo_score>  (2) 
0.205

$$$$
4X1N_combo_pose
     RDKit          3D

 76 79  0  0  0  0  0  0  0  0999 V2000
    4.7673  -31.6343  -11.6626 C   0  0  0  0  0  0  0  0  0  0  0  0
    3.7930  -30.6363  -10.9563 C   0  0  0  0  0  0  0  0  0  0  0  0
    3.1725  -31.4161   -9.8278 C   0  0  0  0  0  0  0  0  0  0  0  0
    2.8391  -30.1853  -12.0069 C   0  0  0  0  0  0  0  0  0  0  0  0
    1.7796  -29.1909  -11.4633 C   0  0  2  0  0  0  0  0  0  0  0  0
    0.8879  -28.8152  -12.5626 N   0  0  0  0  0  0  0  0  0  0  0  0
   -0.3493  -29.5665  -12.7134 C   0  0  0  0  0  0  0  0  0  0  0  0
   -0.5314  -30.4323  -11.8187 O   0  0  0  0  0  0  0  0  0  0  0  0
   -1.3516  -29.4115  -13.7661 C   0  0  2  0  0  0  0  0  0  0  0  0
   -1.5398  -30.7620  -14.5436 C   0  0  0  0  0  0  0  0  0  0  0  0
   -0.2981  -31.2226  -15.1841 C   0  0  0  0  0  0  0  0  0  0  0  0
    0.6046  -32.0616  -14.5383 C   0  0  0  0  0  0  0  0  0  0  0  0
    1.7910  -32.5027  -15.1399 C   0  0  0  0  0  0  0  0  0  0  0  0
    2.1245  -32.1124  -16.4354 C   0  0  0  0  0  0  0  0  0  0  0  0
    3.2788  -32.5117  -17.0862 O   0  0  0  0  0  0  0  0  0  0  0  0
    1.2241  -31.2645  -17.1033 C   0  0  0  0  0  0  0  0  0  0  0  0
    0.0436  -30.8348  -16.4858 C   0  0  0  0  0  0  0  0  0  0  0  0
   -1.1333  -28.3549  -14.7487 N   0  0  0  0  0  0  0  0  0  0  0  0
   -2.2904  -27.6742  -15.3416 C   0  0  0  0  0  0  0  0  0  0  0  0
   -3.3872  -28.1090  -14.9325 O   0  0  0  0  0  0  0  0  0  0  0  0
   -2.1374  -26.5715  -16.3404 C   0  0  2  0  0  0  0  0  0  0  0  0
   -2.7725  -26.9722  -17.6450 C   0  0  0  0  0  0  0  0  0  0  0  0
   -0.7123  -26.2197  -16.5173 N   0  0  0  0  0  0  0  0  0  0  0  0
   -0.2494  -24.9595  -16.0284 C   0  0  0  0  0  0  0  0  0  0  0  0
   -1.1099  -24.2214  -15.5016 O   0  0  0  0  0  0  0  0  0  0  0  0
    1.1552  -24.4587  -16.0912 C   0  0  2  0  0  0  0  0  0  0  0  0
    2.1089  -25.4219  -15.3522 C   0  0  0  0  0  0  0  0  0  0  0  0
    2.1254  -26.6432  -16.0177 O   0  0  0  0  0  0  0  0  0  0  0  0
    1.1163  -23.1645  -15.4120 N   0  0  0  0  0  0  0  0  0  0  0  0
    1.8450  -21.9977  -15.8065 C   0  0  0  0  0  0  0  0  0  0  0  0
    2.5991  -22.1255  -16.7835 O   0  0  0  0  0  0  0  0  0  0  0  0
    1.6256  -20.7612  -15.0001 C   0  0  2  0  0  0  0  0  0  0  0  0
    0.2189  -20.2721  -15.4534 C   0  0  0  0  0  0  0  0  0  0  0  0
   -0.2048  -19.0388  -14.7641 C   0  0  0  0  0  0  0  0  0  0  0  0
    0.1048  -17.7672  -15.2565 C   0  0  0  0  0  0  0  0  0  0  0  0
   -0.3378  -16.6387  -14.5485 C   0  0  0  0  0  0  0  0  0  0  0  0
   -1.0728  -16.7433  -13.3760 C   0  0  0  0  0  0  0  0  0  0  0  0
   -1.5020  -15.6194  -12.6889 O   0  0  0  0  0  0  0  0  0  0  0  0
   -1.3782  -18.0074  -12.8909 C   0  0  0  0  0  0  0  0  0  0  0  0
   -0.9367  -19.1152  -13.5968 C   0  0  0  0  0  0  0  0  0  0  0  0
    2.5512  -19.6711  -15.2725 N   0  0  0  0  0  0  0  0  0  0  0  0
    3.2661  -19.1417  -14.1475 C   0  0  0  0  0  0  0  0  0  0  0  0
    3.0413  -19.6856  -13.0464 O   0  0  0  0  0  0  0  0  0  0  0  0
    4.2445  -18.0109  -14.1784 C   0  0  2  0  0  0  0  0  0  0  0  0
    5.4538  -18.4162  -15.0036 C   0  0  0  0  0  0  0  0  0  0  0  0
    4.6855  -17.8613  -12.7648 N   0  0  0  0  0  0  0  0  0  0  0  0
    4.3685  -16.6724  -11.9977 C   0  0  0  0  0  0  0  0  0  0  0  0
    3.7542  -15.7937  -12.6241 O   0  0  0  0  0  0  0  0  0  0  0  0
    4.7790  -16.5580  -10.5388 C   0  0  2  0  0  0  0  0  0  0  0  0
    6.1189  -15.9235  -10.4174 C   0  0  0  0  0  0  0  0  0  0  0  0
    7.0776  -17.0854  -10.2418 C   0  0  0  0  0  0  0  0  0  0  0  0
    6.1997  -18.1349   -9.5487 C   0  0  0  0  0  0  0  0  0  0  0  0
    4.8665  -17.9319   -9.9651 N   0  0  0  0  0  0  0  0  0  0  0  0
    3.6931  -18.7320   -9.9369 C   0  0  0  0  0  0  0  0  0  0  0  0
    2.6678  -18.1503  -10.3920 O   0  0  0  0  0  0  0  0  0  0  0  0
    3.5481  -20.1216   -9.4498 C   0  0  1  0  0  0  0  0  0  0  0  0
    4.7057  -20.7144   -8.8353 N   0  0  0  0  0  0  0  0  0  0  0  0
    2.3181  -20.2680   -8.5177 C   0  0  0  0  0  0  0  0  0  0  0  0
    0.8640  -19.8080   -9.4536 S   0  0  0  0  0  0  0  0  0  0  0  0
    0.5046  -21.2408  -10.9934 S   0  0  0  0  0  0  0  0  0  0  0  0
   -0.5774  -22.5287  -10.3727 C   0  0  0  0  0  0  0  0  0  0  0  0
    0.0118  -23.5426   -9.4435 C   0  0  1  0  0  0  0  0  0  0  0  0
   -1.1295  -24.2993   -8.8063 C   0  0  0  0  0  0  0  0  0  0  0  0
   -2.3196  -24.2334   -9.2377 O   0  0  0  0  0  0  0  0  0  0  0  0
   -0.8876  -25.1185   -7.6855 O   0  0  0  0  0  0  0  0  0  0  0  0
    0.8530  -24.5295  -10.1664 N   0  0  0  0  0  0  0  0  0  0  0  0
    2.2767  -24.6178  -10.0283 C   0  0  0  0  0  0  0  0  0  0  0  0
    2.7866  -23.7559   -9.2806 O   0  0  0  0  0  0  0  0  0  0  0  0
    3.1391  -25.6238  -10.6955 C   0  0  2  0  0  0  0  0  0  0  0  0
    4.1145  -25.0079  -11.7050 C   0  0  0  0  0  0  0  0  0  0  0  0
    5.0770  -24.0567  -11.1348 C   0  0  0  0  0  0  0  0  0  0  0  0
    5.7452  -23.3186  -11.9428 O   0  0  0  0  0  0  0  0  0  0  0  0
    5.3412  -23.8763   -9.7737 O   0  0  0  0  0  0  0  0  0  0  0  0
    2.3162  -26.6300  -11.3568 N   0  0  0  0  0  0  0  0  0  0  0  0
    2.4329  -28.0135  -10.9109 C   0  0  0  0  0  0  0  0  0  0  0  0
    3.2058  -28.1467   -9.9219 O   0  0  0  0  0  0  0  0  0  0  0  0
  1  2  1  0
  2  3  1  0
  2  4  1  0
  5  4  1  6
  5  6  1  0
  6  7  1  0
  7  8  2  0
  7  9  1  0
  9 10  1  6
 10 11  1  0
 11 12  2  0
 12 13  1  0
 13 14  2  0
 14 15  1  0
 14 16  1  0
 16 17  2  0
  9 18  1  0
 18 19  1  0
 19 20  2  0
 19 21  1  0
 21 22  1  6
 21 23  1  0
 23 24  1  0
 24 25  2  0
 24 26  1  0
 26 27  1  1
 27 28  1  0
 26 29  1  0
 29 30  1  0
 30 31  2  0
 30 32  1  0
 32 33  1  6
 33 34  1  0
 34 35  2  0
 35 36  1  0
 36 37  2  0
 37 38  1  0
 37 39  1  0
 39 40  2  0
 32 41  1  0
 41 42  1  0
 42 43  2  0
 42 44  1  0
 44 45  1  6
 44 46  1  0
 46 47  1  0
 47 48  2  0
 47 49  1  0
 49 50  1  6
 50 51  1  0
 51 52  1  0
 52 53  1  0
 53 54  1  0
 54 55  2  0
 54 56  1  0
 56 57  1  1
 56 58  1  0
 58 59  1  0
 59 60  1  0
 60 61  1  0
 61 62  1  0
 62 63  1  6
 63 64  2  0
 63 65  1  0
 62 66  1  0
 66 67  1  0
 67 68  2  0
 67 69  1  0
 69 70  1  6
 70 71  1  0
 71 72  2  0
 71 73  1  0
 69 74  1  0
 74 75  1  0
 75 76  2  0
 75  5  1  0
 17 11  1  0
 40 34  1  0
 53 49  1  0
M  CHG  3  57   1  65  -1  73  -1
M  END
>  <shape_align_shape_tanimoto>  (3) 
0.45426725114713268

>  <shape_align_color_tanimoto>  (3) 
0.024596551785633254

>  <metric>  (3) 
combo

>  <metric_score>  (3) 
0.239

>  <template_pid>  (3) 
4X1N

>  <template_shape_score>  (3) 
0.454

>  <template_color_score>  (3) 
0.025

>  <template_combo_score>  (3) 
0.239

$$$$
