6N0M_shape_pose
     RDKit          3D

 12 11  0  0  0  0  0  0  0  0999 V2000
   30.5376   -1.6918   28.8504 C   0  0  0  0  0  0  0  0  0  0  0  0
   30.5361   -1.0996   27.4287 C   0  0  0  0  0  0  0  0  0  0  0  0
   29.1118   -0.9855   27.0679 C   0  0  0  0  0  0  0  0  0  0  0  0
   31.4560   -1.8889   26.6201 C   0  0  0  0  0  0  0  0  0  0  0  0
   31.6541   -1.5398   25.1991 C   0  0  2  0  0  0  0  0  0  0  0  0
   30.4247   -1.6133   24.4301 N   0  0  0  0  0  0  0  0  0  0  0  0
   32.6299   -2.4538   24.5439 C   0  0  0  0  0  0  0  0  0  0  0  0
   33.0237   -2.1593   23.3916 O   0  0  0  0  0  0  0  0  0  0  0  0
   33.1022   -3.6027   25.1725 O   0  0  0  0  0  0  0  0  0  0  0  0
   31.0523    0.3218   27.6354 C   0  0  0  0  0  0  0  0  0  0  0  0
   30.2219    1.0248   28.4862 F   0  0  0  0  0  0  0  0  0  0  0  0
   32.3091    0.3260   28.1814 F   0  0  0  0  0  0  0  0  0  0  0  0
  1  2  1  0
  2  3  1  0
  2  4  1  0
  4  5  1  0
  5  6  1  6
  5  7  1  0
  7  8  2  0
  7  9  1  0
  2 10  1  0
 10 11  1  0
 10 12  1  0
M  CHG  2   6   1   9  -1
M  END
>  <shape_align_shape_tanimoto>  (1) 
0.3256641162300109

>  <shape_align_color_tanimoto>  (1) 
3.5859837322809895e-07

>  <metric>  (1) 
shape

>  <metric_score>  (1) 
0.326

>  <template_pid>  (1) 
6N0M

>  <template_shape_score>  (1) 
0.326

>  <template_color_score>  (1) 
0.000

>  <template_combo_score>  (1) 
0.163

$$$$
6N0M_color_pose
     RDKit          3D

 12 11  0  0  0  0  0  0  0  0999 V2000
   32.8885   -0.2137   28.7588 C   0  0  0  0  0  0  0  0  0  0  0  0
   31.6947   -0.0037   27.7530 C   0  0  0  0  0  0  0  0  0  0  0  0
   32.1992    1.1614   26.8937 C   0  0  0  0  0  0  0  0  0  0  0  0
   30.5211    0.3501   28.5422 C   0  0  0  0  0  0  0  0  0  0  0  0
   29.1976    0.6358   27.9436 C   0  0  2  0  0  0  0  0  0  0  0  0
   28.3348    1.0760   29.0907 N   0  0  0  0  0  0  0  0  0  0  0  0
   28.4281   -0.5121   27.4150 C   0  0  0  0  0  0  0  0  0  0  0  0
   28.6567   -1.7169   27.5111 O   0  0  0  0  0  0  0  0  0  0  0  0
   27.2590   -0.1624   26.6944 O   0  0  0  0  0  0  0  0  0  0  0  0
   31.6960   -1.2800   26.9903 C   0  0  0  0  0  0  0  0  0  0  0  0
   31.4764   -2.3305   27.8508 F   0  0  0  0  0  0  0  0  0  0  0  0
   30.9365   -1.3367   25.8707 F   0  0  0  0  0  0  0  0  0  0  0  0
  1  2  1  0
  2  3  1  0
  2  4  1  0
  4  5  1  0
  5  6  1  1
  5  7  1  0
  7  8  2  0
  7  9  1  0
  2 10  1  0
 10 11  1  0
 10 12  1  0
M  CHG  2   6   1   9  -1
M  END
>  <shape_align_shape_tanimoto>  (2) 
0.29569880268512316

>  <shape_align_color_tanimoto>  (2) 
0.079295599094208261

>  <metric>  (2) 
color

>  <metric_score>  (2) 
0.079

>  <template_pid>  (2) 
6N0M

>  <template_shape_score>  (2) 
0.296

>  <template_color_score>  (2) 
0.079

>  <template_combo_score>  (2) 
0.187

$$$$
6N0M_combo_pose
     RDKit          3D

 12 11  0  0  0  0  0  0  0  0999 V2000
   32.8885   -0.2137   28.7588 C   0  0  0  0  0  0  0  0  0  0  0  0
   31.6947   -0.0037   27.7530 C   0  0  0  0  0  0  0  0  0  0  0  0
   32.1992    1.1614   26.8937 C   0  0  0  0  0  0  0  0  0  0  0  0
   30.5211    0.3501   28.5422 C   0  0  0  0  0  0  0  0  0  0  0  0
   29.1976    0.6358   27.9436 C   0  0  2  0  0  0  0  0  0  0  0  0
   28.3348    1.0760   29.0907 N   0  0  0  0  0  0  0  0  0  0  0  0
   28.4281   -0.5121   27.4150 C   0  0  0  0  0  0  0  0  0  0  0  0
   28.6567   -1.7169   27.5111 O   0  0  0  0  0  0  0  0  0  0  0  0
   27.2590   -0.1624   26.6944 O   0  0  0  0  0  0  0  0  0  0  0  0
   31.6960   -1.2800   26.9903 C   0  0  0  0  0  0  0  0  0  0  0  0
   31.4764   -2.3305   27.8508 F   0  0  0  0  0  0  0  0  0  0  0  0
   30.9365   -1.3367   25.8707 F   0  0  0  0  0  0  0  0  0  0  0  0
  1  2  1  0
  2  3  1  0
  2  4  1  0
  4  5  1  0
  5  6  1  1
  5  7  1  0
  7  8  2  0
  7  9  1  0
  2 10  1  0
 10 11  1  0
 10 12  1  0
M  CHG  2   6   1   9  -1
M  END
>  <shape_align_shape_tanimoto>  (3) 
0.29569880268512316

>  <shape_align_color_tanimoto>  (3) 
0.079295599094208261

>  <metric>  (3) 
combo

>  <metric_score>  (3) 
0.187

>  <template_pid>  (3) 
6N0M

>  <template_shape_score>  (3) 
0.296

>  <template_color_score>  (3) 
0.079

>  <template_combo_score>  (3) 
0.187

$$$$
