5TH2_shape_pose
     RDKit          3D

102103  0  0  0  0  0  0  0  0999 V2000
    0.9097   36.2187   14.9086 C   0  0  0  0  0  0  0  0  0  0  0  0
    0.2566   37.0499   16.0411 C   0  0  0  0  0  0  0  0  0  0  0  0
    0.6927   38.4949   15.7449 C   0  0  0  0  0  0  0  0  0  0  0  0
    0.7485   36.6081   17.3649 C   0  0  0  0  0  0  0  0  0  0  0  0
    0.2431   37.2167   18.5738 C   0  0  2  0  0  0  0  0  0  0  0  0
   -1.2346   37.0931   18.7695 N   0  0  0  0  0  0  0  0  0  0  0  0
   -1.6456   37.1544   20.0942 C   0  0  0  0  0  0  0  0  0  0  0  0
   -0.7384   37.3318   20.9472 O   0  0  0  0  0  0  0  0  0  0  0  0
   -3.0262   37.0521   20.7074 C   0  0  2  0  0  0  0  0  0  0  0  0
   -2.8272   36.3698   22.0222 C   0  0  0  0  0  0  0  0  0  0  0  0
   -3.9403   36.2285   22.9525 C   0  0  0  0  0  0  0  0  0  0  0  0
   -4.5715   37.5661   23.2904 C   0  0  0  0  0  0  0  0  0  0  0  0
   -5.6520   37.3961   24.2303 N   0  0  0  0  0  0  0  0  0  0  0  0
   -6.2801   38.6418   24.6459 C   0  0  0  0  0  0  0  0  0  0  0  0
   -7.3515   38.6675   25.5723 N   0  0  0  0  0  0  0  0  0  0  0  0
   -5.8676   39.7709   24.1867 N   0  0  0  0  0  0  0  0  0  0  0  0
   -3.9879   36.7012   19.7531 N   0  0  0  0  0  0  0  0  0  0  0  0
   -5.2952   36.1292   19.8246 C   0  0  0  0  0  0  0  0  0  0  0  0
   -5.6498   35.7604   20.9284 O   0  0  0  0  0  0  0  0  0  0  0  0
   -6.1944   35.9566   18.6728 C   0  0  2  0  0  0  0  0  0  0  0  0
   -6.7907   34.6620   18.3125 C   0  0  0  0  0  0  0  0  0  0  0  0
   -7.7584   33.9273   19.1167 C   0  0  0  0  0  0  0  0  0  0  0  0
   -7.5060   33.4254   20.4717 C   0  0  0  0  0  0  0  0  0  0  0  0
   -8.6915   32.6345   20.9011 N   0  0  0  0  0  0  0  0  0  0  0  0
   -9.0327   31.4147   20.2997 C   0  0  0  0  0  0  0  0  0  0  0  0
  -10.2157   30.7602   20.8008 N   0  0  0  0  0  0  0  0  0  0  0  0
   -8.4079   30.8257   19.3478 N   0  0  0  0  0  0  0  0  0  0  0  0
   -5.7265   36.6636   17.4855 N   0  0  0  0  0  0  0  0  0  0  0  0
   -6.6979   37.4756   16.7749 C   0  0  0  0  0  0  0  0  0  0  0  0
   -7.8635   37.3574   17.1481 O   0  0  0  0  0  0  0  0  0  0  0  0
   -6.3643   38.3754   15.6782 C   0  0  2  0  0  0  0  0  0  0  0  0
   -5.7930   39.6217   16.3858 C   0  0  1  0  0  0  0  0  0  0  0  0
   -4.7141   39.3282   17.3688 C   0  0  0  0  0  0  0  0  0  0  0  0
   -5.4231   40.5196   15.4439 O   0  0  0  0  0  0  0  0  0  0  0  0
   -7.5375   38.8564   14.9167 N   0  0  0  0  0  0  0  0  0  0  0  0
   -7.5478   38.8226   13.4772 C   0  0  0  0  0  0  0  0  0  0  0  0
   -6.5631   38.2594   12.9808 O   0  0  0  0  0  0  0  0  0  0  0  0
   -8.5903   39.3768   12.6293 C   0  0  2  0  0  0  0  0  0  0  0  0
   -7.8540   40.6084   11.9360 C   0  0  0  0  0  0  0  0  0  0  0  0
   -6.7894   40.0641   11.2462 O   0  0  0  0  0  0  0  0  0  0  0  0
   -9.6661   40.0794   13.2934 N   0  0  0  0  0  0  0  0  0  0  0  0
  -10.8025   40.4584   12.4802 C   0  0  0  0  0  0  0  0  0  0  0  0
  -10.7242   40.0932   11.3031 O   0  0  0  0  0  0  0  0  0  0  0  0
  -11.9585   41.2064   12.9477 C   0  0  2  0  0  0  0  0  0  0  0  0
  -11.7986   42.6493   12.4041 C   0  0  0  0  0  0  0  0  0  0  0  0
  -11.7585   42.7026   10.9142 C   0  0  0  0  0  0  0  0  0  0  0  0
  -11.6256   44.1562   10.5326 C   0  0  0  0  0  0  0  0  0  0  0  0
  -11.5155   44.4644    9.1267 N   0  0  0  0  0  0  0  0  0  0  0  0
  -11.6113   45.0719   11.3926 O   0  0  0  0  0  0  0  0  0  0  0  0
  -12.0670   41.3912   14.3817 N   0  0  0  0  0  0  0  0  0  0  0  0
  -13.3747   41.4566   14.9357 C   0  0  0  0  0  0  0  0  0  0  0  0
  -14.3108   41.4295   14.1326 O   0  0  0  0  0  0  0  0  0  0  0  0
  -13.6466   41.5623   16.4197 C   0  0  2  0  0  0  0  0  0  0  0  0
  -14.3849   42.7697   16.8218 C   0  0  0  0  0  0  0  0  0  0  0  0
  -14.6049   42.8118   18.2861 C   0  0  0  0  0  0  0  0  0  0  0  0
  -15.4454   42.0071   18.8144 O   0  0  0  0  0  0  0  0  0  0  0  0
  -13.9175   43.7131   19.1209 O   0  0  0  0  0  0  0  0  0  0  0  0
  -12.3638   41.3586   17.0746 N   0  0  0  0  0  0  0  0  0  0  0  0
  -11.9372   40.0132   17.1972 C   0  0  0  0  0  0  0  0  0  0  0  0
  -12.6706   39.1607   16.6598 O   0  0  0  0  0  0  0  0  0  0  0  0
  -10.6907   39.5641   17.9023 C   0  0  2  0  0  0  0  0  0  0  0  0
  -11.0440   38.5903   18.9609 C   0  0  0  0  0  0  0  0  0  0  0  0
  -11.7644   37.4173   18.4866 C   0  0  0  0  0  0  0  0  0  0  0  0
  -13.1684   37.4178   18.5795 C   0  0  0  0  0  0  0  0  0  0  0  0
  -13.9431   36.3766   18.1662 C   0  0  0  0  0  0  0  0  0  0  0  0
  -13.3783   35.2419   17.6232 C   0  0  0  0  0  0  0  0  0  0  0  0
  -12.0014   35.2028   17.5189 C   0  0  0  0  0  0  0  0  0  0  0  0
  -11.2330   36.2657   17.9418 C   0  0  0  0  0  0  0  0  0  0  0  0
  -10.0624   40.7527   18.5132 N   0  0  0  0  0  0  0  0  0  0  0  0
   -9.1955   41.6629   17.9054 C   0  0  0  0  0  0  0  0  0  0  0  0
   -8.9758   41.4753   16.6952 O   0  0  0  0  0  0  0  0  0  0  0  0
   -8.5772   42.7998   18.6772 C   0  0  2  0  0  0  0  0  0  0  0  0
   -9.5467   43.3455   19.6705 C   0  0  0  0  0  0  0  0  0  0  0  0
   -9.1191   44.4813   20.5210 C   0  0  0  0  0  0  0  0  0  0  0  0
   -8.7955   45.7489   19.8416 C   0  0  0  0  0  0  0  0  0  0  0  0
   -7.9892   46.6719   20.6054 N   0  0  0  0  0  0  0  0  0  0  0  0
   -9.1510   46.0816   18.6960 O   0  0  0  0  0  0  0  0  0  0  0  0
   -7.9045   43.7577   17.8676 N   0  0  0  0  0  0  0  0  0  0  0  0
   -6.5516   44.2266   18.0740 C   0  0  0  0  0  0  0  0  0  0  0  0
   -5.9477   43.6557   18.9842 O   0  0  0  0  0  0  0  0  0  0  0  0
   -5.9775   45.3215   17.2213 C   0  0  1  0  0  0  0  0  0  0  0  0
   -4.6477   45.5473   17.6907 N   0  0  0  0  0  0  0  0  0  0  0  0
   -6.1575   45.1263   15.7843 C   0  0  0  0  0  0  0  0  0  0  0  0
   -5.3064   43.8627   14.9255 S   0  0  0  0  0  0  0  0  0  0  0  0
   -3.2862   44.2215   14.5856 S   0  0  0  0  0  0  0  0  0  0  0  0
   -2.2738   43.6368   15.9082 C   0  0  0  0  0  0  0  0  0  0  0  0
   -2.3783   42.1213   16.1162 C   0  0  1  0  0  0  0  0  0  0  0  0
   -2.1672   41.3858   14.8548 C   0  0  0  0  0  0  0  0  0  0  0  0
   -1.5899   41.9552   13.8631 O   0  0  0  0  0  0  0  0  0  0  0  0
   -2.5507   40.0721   14.6400 O   0  0  0  0  0  0  0  0  0  0  0  0
   -1.4310   41.6822   17.1134 N   0  0  0  0  0  0  0  0  0  0  0  0
   -1.6060   41.6295   18.5187 C   0  0  0  0  0  0  0  0  0  0  0  0
   -2.6459   42.1348   18.9601 O   0  0  0  0  0  0  0  0  0  0  0  0
   -0.5353   40.9949   19.3000 C   0  0  2  0  0  0  0  0  0  0  0  0
    0.8443   41.5930   19.1027 C   0  0  0  0  0  0  0  0  0  0  0  0
    0.9813   43.0432   19.4189 C   0  0  0  0  0  0  0  0  0  0  0  0
    0.2604   44.0098   18.5432 C   0  0  0  0  0  0  0  0  0  0  0  0
    0.6191   45.4083   19.0811 C   0  0  0  0  0  0  0  0  0  0  0  0
    0.1516   45.5593   20.4414 N   0  0  0  0  0  0  0  0  0  0  0  0
   -0.5068   39.5695   18.9084 N   0  0  0  0  0  0  0  0  0  0  0  0
    0.5544   38.6718   18.8471 C   0  0  0  0  0  0  0  0  0  0  0  0
    1.6933   39.0963   19.0061 O   0  0  0  0  0  0  0  0  0  0  0  0
  1  2  1  0
  2  3  1  0
  2  4  1  0
  5  4  1  6
  5  6  1  0
  6  7  1  0
  7  8  2  0
  7  9  1  0
  9 10  1  1
 10 11  1  0
 11 12  1  0
 12 13  1  0
 13 14  1  0
 14 15  1  0
 14 16  2  0
  9 17  1  0
 17 18  1  0
 18 19  2  0
 18 20  1  0
 20 21  1  6
 21 22  1  0
 22 23  1  0
 23 24  1  0
 24 25  1  0
 25 26  1  0
 25 27  2  0
 20 28  1  0
 28 29  1  0
 29 30  2  0
 29 31  1  0
 31 32  1  0
 32 33  1  6
 32 34  1  0
 31 35  1  1
 35 36  1  0
 36 37  2  0
 36 38  1  0
 38 39  1  6
 39 40  1  0
 38 41  1  0
 41 42  1  0
 42 43  2  0
 42 44  1  0
 44 45  1  6
 45 46  1  0
 46 47  1  0
 47 48  1  0
 47 49  2  0
 44 50  1  0
 50 51  1  0
 51 52  2  0
 51 53  1  0
 53 54  1  6
 54 55  1  0
 55 56  2  0
 55 57  1  0
 53 58  1  0
 58 59  1  0
 59 60  2  0
 59 61  1  0
 61 62  1  1
 62 63  1  0
 63 64  2  0
 64 65  1  0
 65 66  2  0
 66 67  1  0
 67 68  2  0
 61 69  1  0
 69 70  1  0
 70 71  2  0
 70 72  1  0
 72 73  1  6
 73 74  1  0
 74 75  1  0
 75 76  1  0
 75 77  2  0
 72 78  1  0
 78 79  1  0
 79 80  2  0
 79 81  1  0
 81 82  1  6
 81 83  1  0
 83 84  1  0
 84 85  1  0
 85 86  1  0
 86 87  1  0
 87 88  1  6
 88 89  2  0
 88 90  1  0
 87 91  1  0
 91 92  1  0
 92 93  2  0
 92 94  1  0
 94 95  1  6
 95 96  1  0
 96 97  1  0
 97 98  1  0
 98 99  1  0
 94100  1  0
100101  1  0
101102  2  0
101  5  1  0
 68 63  1  0
M  CHG  6  16   1  27   1  57  -1  82   1  90  -1  99   1
M  END
>  <shape_align_shape_tanimoto>  (1) 
0.25438146209815043

>  <shape_align_color_tanimoto>  (1) 
0.01421313568923065

>  <metric>  (1) 
shape

>  <metric_score>  (1) 
0.254

>  <template_pid>  (1) 
5TH2

>  <template_shape_score>  (1) 
0.254

>  <template_color_score>  (1) 
0.014

>  <template_combo_score>  (1) 
0.134

$$$$
5TH2_color_pose
     RDKit          3D

102103  0  0  0  0  0  0  0  0999 V2000
   -5.3506   41.6492   24.2374 C   0  0  0  0  0  0  0  0  0  0  0  0
   -5.5292   40.6636   23.0531 C   0  0  0  0  0  0  0  0  0  0  0  0
   -4.5941   41.2784   21.9930 C   0  0  0  0  0  0  0  0  0  0  0  0
   -5.0263   39.3667   23.5424 C   0  0  0  0  0  0  0  0  0  0  0  0
   -5.1027   38.1846   22.5892 C   0  0  2  0  0  0  0  0  0  0  0  0
   -4.3651   38.3785   21.3588 N   0  0  0  0  0  0  0  0  0  0  0  0
   -2.9230   38.4221   21.3643 C   0  0  0  0  0  0  0  0  0  0  0  0
   -2.4210   38.3397   22.4914 O   0  0  0  0  0  0  0  0  0  0  0  0
   -2.0807   38.5609   20.1840 C   0  0  2  0  0  0  0  0  0  0  0  0
   -1.6395   40.0568   20.1118 C   0  0  0  0  0  0  0  0  0  0  0  0
   -0.7619   40.2905   18.8946 C   0  0  0  0  0  0  0  0  0  0  0  0
   -0.4415   41.7769   18.9252 C   0  0  0  0  0  0  0  0  0  0  0  0
    0.3827   42.2160   17.8400 N   0  0  0  0  0  0  0  0  0  0  0  0
    0.7280   43.5990   17.7983 C   0  0  0  0  0  0  0  0  0  0  0  0
    1.5407   44.1445   16.7696 N   0  0  0  0  0  0  0  0  0  0  0  0
    0.3066   44.4375   18.7168 N   0  0  0  0  0  0  0  0  0  0  0  0
   -2.6723   38.2205   18.9021 N   0  0  0  0  0  0  0  0  0  0  0  0
   -1.9609   37.3084   18.0869 C   0  0  0  0  0  0  0  0  0  0  0  0
   -0.9021   36.8585   18.5358 O   0  0  0  0  0  0  0  0  0  0  0  0
   -2.3701   36.8299   16.7254 C   0  0  2  0  0  0  0  0  0  0  0  0
   -1.2542   37.1668   15.7627 C   0  0  0  0  0  0  0  0  0  0  0  0
   -1.3913   36.7898   14.3503 C   0  0  0  0  0  0  0  0  0  0  0  0
   -2.5181   37.3561   13.5686 C   0  0  0  0  0  0  0  0  0  0  0  0
   -2.4852   36.8938   12.1564 N   0  0  0  0  0  0  0  0  0  0  0  0
   -3.5338   37.3700   11.3187 C   0  0  0  0  0  0  0  0  0  0  0  0
   -3.5468   36.9542    9.9460 N   0  0  0  0  0  0  0  0  0  0  0  0
   -4.4758   38.1593   11.7336 N   0  0  0  0  0  0  0  0  0  0  0  0
   -3.5931   37.4148   16.2481 N   0  0  0  0  0  0  0  0  0  0  0  0
   -4.8514   36.6504   16.2395 C   0  0  0  0  0  0  0  0  0  0  0  0
   -4.7293   35.5341   16.7292 O   0  0  0  0  0  0  0  0  0  0  0  0
   -6.0547   37.2859   15.6729 C   0  0  2  0  0  0  0  0  0  0  0  0
   -6.3383   38.6720   16.1771 C   0  0  1  0  0  0  0  0  0  0  0  0
   -7.4212   39.3189   15.2991 C   0  0  0  0  0  0  0  0  0  0  0  0
   -6.8080   38.7264   17.4629 O   0  0  0  0  0  0  0  0  0  0  0  0
   -7.2149   36.4363   15.6785 N   0  0  0  0  0  0  0  0  0  0  0  0
   -7.7494   35.8211   14.4894 C   0  0  0  0  0  0  0  0  0  0  0  0
   -7.0958   36.0351   13.4628 O   0  0  0  0  0  0  0  0  0  0  0  0
   -8.9704   35.0003   14.4692 C   0  0  2  0  0  0  0  0  0  0  0  0
   -9.9591   35.6004   13.4516 C   0  0  0  0  0  0  0  0  0  0  0  0
  -11.0453   34.7291   13.3782 O   0  0  0  0  0  0  0  0  0  0  0  0
   -9.6269   34.8818   15.7617 N   0  0  0  0  0  0  0  0  0  0  0  0
  -10.2725   33.6951   16.2014 C   0  0  0  0  0  0  0  0  0  0  0  0
  -10.1943   32.7341   15.4197 O   0  0  0  0  0  0  0  0  0  0  0  0
  -10.9960   33.5977   17.5286 C   0  0  2  0  0  0  0  0  0  0  0  0
  -12.1849   32.7045   17.4657 C   0  0  0  0  0  0  0  0  0  0  0  0
  -12.8479   32.6501   18.8220 C   0  0  0  0  0  0  0  0  0  0  0  0
  -12.0000   32.1072   19.8912 C   0  0  0  0  0  0  0  0  0  0  0  0
  -12.4352   32.2886   21.2462 N   0  0  0  0  0  0  0  0  0  0  0  0
  -10.9183   31.4941   19.7381 O   0  0  0  0  0  0  0  0  0  0  0  0
  -11.1742   34.8533   18.1854 N   0  0  0  0  0  0  0  0  0  0  0  0
  -11.7068   36.0536   17.5960 C   0  0  0  0  0  0  0  0  0  0  0  0
  -12.0994   35.9760   16.4456 O   0  0  0  0  0  0  0  0  0  0  0  0
  -11.7055   37.2538   18.4786 C   0  0  2  0  0  0  0  0  0  0  0  0
  -12.7754   37.1043   19.5629 C   0  0  0  0  0  0  0  0  0  0  0  0
  -14.0920   36.9800   18.8730 C   0  0  0  0  0  0  0  0  0  0  0  0
  -14.5825   35.9128   18.4666 O   0  0  0  0  0  0  0  0  0  0  0  0
  -14.8142   38.1428   18.6743 O   0  0  0  0  0  0  0  0  0  0  0  0
  -11.9942   38.5008   17.8063 N   0  0  0  0  0  0  0  0  0  0  0  0
  -10.9524   39.5152   17.6338 C   0  0  0  0  0  0  0  0  0  0  0  0
   -9.8432   39.1071   18.0356 O   0  0  0  0  0  0  0  0  0  0  0  0
  -11.1942   40.8285   17.0572 C   0  0  2  0  0  0  0  0  0  0  0  0
  -10.6304   41.9030   17.9662 C   0  0  0  0  0  0  0  0  0  0  0  0
   -9.1848   41.8208   18.2098 C   0  0  0  0  0  0  0  0  0  0  0  0
   -8.3327   42.4036   17.2924 C   0  0  0  0  0  0  0  0  0  0  0  0
   -6.9605   42.4027   17.4219 C   0  0  0  0  0  0  0  0  0  0  0  0
   -6.4391   41.7709   18.5515 C   0  0  0  0  0  0  0  0  0  0  0  0
   -7.2784   41.1794   19.4854 C   0  0  0  0  0  0  0  0  0  0  0  0
   -8.6499   41.2060   19.3145 C   0  0  0  0  0  0  0  0  0  0  0  0
  -12.5900   41.1135   16.7732 N   0  0  0  0  0  0  0  0  0  0  0  0
  -13.0841   41.5752   15.5248 C   0  0  0  0  0  0  0  0  0  0  0  0
  -12.2543   41.6694   14.6219 O   0  0  0  0  0  0  0  0  0  0  0  0
  -14.5468   41.9146   15.3634 C   0  0  2  0  0  0  0  0  0  0  0  0
  -14.7763   43.2667   14.8024 C   0  0  0  0  0  0  0  0  0  0  0  0
  -14.1740   43.4919   13.4459 C   0  0  0  0  0  0  0  0  0  0  0  0
  -14.6506   42.6104   12.3814 C   0  0  0  0  0  0  0  0  0  0  0  0
  -14.0767   42.7805   11.0720 N   0  0  0  0  0  0  0  0  0  0  0  0
  -15.5224   41.7126   12.5093 O   0  0  0  0  0  0  0  0  0  0  0  0
  -15.1906   41.7644   16.6381 N   0  0  0  0  0  0  0  0  0  0  0  0
  -14.9833   42.6009   17.7826 C   0  0  0  0  0  0  0  0  0  0  0  0
  -14.1987   43.5328   17.6380 O   0  0  0  0  0  0  0  0  0  0  0  0
  -15.6571   42.3861   19.0861 C   0  0  1  0  0  0  0  0  0  0  0  0
  -16.6340   41.3551   19.0620 N   0  0  0  0  0  0  0  0  0  0  0  0
  -14.5800   42.1768   20.1405 C   0  0  0  0  0  0  0  0  0  0  0  0
  -15.1968   41.6759   21.7390 S   0  0  0  0  0  0  0  0  0  0  0  0
  -13.5438   41.5336   23.0678 S   0  0  0  0  0  0  0  0  0  0  0  0
  -12.8441   39.8862   22.9506 C   0  0  0  0  0  0  0  0  0  0  0  0
  -11.7280   39.6383   23.9031 C   0  0  1  0  0  0  0  0  0  0  0  0
  -12.2648   39.6295   25.2896 C   0  0  0  0  0  0  0  0  0  0  0  0
  -11.4412   39.6949   26.2349 O   0  0  0  0  0  0  0  0  0  0  0  0
  -13.6441   39.5498   25.5376 O   0  0  0  0  0  0  0  0  0  0  0  0
  -11.0450   38.3934   23.6567 N   0  0  0  0  0  0  0  0  0  0  0  0
   -9.6254   38.3879   23.6313 C   0  0  0  0  0  0  0  0  0  0  0  0
   -9.0588   39.4577   23.8608 O   0  0  0  0  0  0  0  0  0  0  0  0
   -8.7745   37.1851   23.3483 C   0  0  2  0  0  0  0  0  0  0  0  0
   -9.2073   36.1155   24.3054 C   0  0  0  0  0  0  0  0  0  0  0  0
   -8.4385   34.8348   24.1448 C   0  0  0  0  0  0  0  0  0  0  0  0
   -8.5765   34.2405   22.7591 C   0  0  0  0  0  0  0  0  0  0  0  0
   -7.7590   32.9647   22.7053 C   0  0  0  0  0  0  0  0  0  0  0  0
   -7.8598   32.3468   21.3855 N   0  0  0  0  0  0  0  0  0  0  0  0
   -7.3677   37.5612   23.5060 N   0  0  0  0  0  0  0  0  0  0  0  0
   -6.4899   37.7365   22.3861 C   0  0  0  0  0  0  0  0  0  0  0  0
   -7.0195   37.4758   21.2890 O   0  0  0  0  0  0  0  0  0  0  0  0
  1  2  1  0
  2  3  1  0
  2  4  1  0
  5  4  1  6
  5  6  1  0
  6  7  1  0
  7  8  2  0
  7  9  1  0
  9 10  1  6
 10 11  1  0
 11 12  1  0
 12 13  1  0
 13 14  1  0
 14 15  1  0
 14 16  2  0
  9 17  1  0
 17 18  1  0
 18 19  2  0
 18 20  1  0
 20 21  1  6
 21 22  1  0
 22 23  1  0
 23 24  1  0
 24 25  1  0
 25 26  1  0
 25 27  2  0
 20 28  1  0
 28 29  1  0
 29 30  2  0
 29 31  1  0
 31 32  1  0
 32 33  1  6
 32 34  1  0
 31 35  1  1
 35 36  1  0
 36 37  2  0
 36 38  1  0
 38 39  1  6
 39 40  1  0
 38 41  1  0
 41 42  1  0
 42 43  2  0
 42 44  1  0
 44 45  1  6
 45 46  1  0
 46 47  1  0
 47 48  1  0
 47 49  2  0
 44 50  1  0
 50 51  1  0
 51 52  2  0
 51 53  1  0
 53 54  1  1
 54 55  1  0
 55 56  2  0
 55 57  1  0
 53 58  1  0
 58 59  1  0
 59 60  2  0
 59 61  1  0
 61 62  1  1
 62 63  1  0
 63 64  2  0
 64 65  1  0
 65 66  2  0
 66 67  1  0
 67 68  2  0
 61 69  1  0
 69 70  1  0
 70 71  2  0
 70 72  1  0
 72 73  1  1
 73 74  1  0
 74 75  1  0
 75 76  1  0
 75 77  2  0
 72 78  1  0
 78 79  1  0
 79 80  2  0
 79 81  1  0
 81 82  1  6
 81 83  1  0
 83 84  1  0
 84 85  1  0
 85 86  1  0
 86 87  1  0
 87 88  1  1
 88 89  2  0
 88 90  1  0
 87 91  1  0
 91 92  1  0
 92 93  2  0
 92 94  1  0
 94 95  1  1
 95 96  1  0
 96 97  1  0
 97 98  1  0
 98 99  1  0
 94100  1  0
100101  1  0
101102  2  0
101  5  1  0
 68 63  1  0
M  CHG  6  16   1  27   1  57  -1  82   1  90  -1  99   1
M  END
>  <shape_align_shape_tanimoto>  (2) 
0.21347335728754166

>  <shape_align_color_tanimoto>  (2) 
0.041094032491106908

>  <metric>  (2) 
color

>  <metric_score>  (2) 
0.041

>  <template_pid>  (2) 
5TH2

>  <template_shape_score>  (2) 
0.213

>  <template_color_score>  (2) 
0.041

>  <template_combo_score>  (2) 
0.127

$$$$
5TH2_combo_pose
     RDKit          3D

102103  0  0  0  0  0  0  0  0999 V2000
  -11.4786   42.9422   13.7798 C   0  0  0  0  0  0  0  0  0  0  0  0
  -12.8421   42.3392   13.6200 C   0  0  0  0  0  0  0  0  0  0  0  0
  -13.0824   42.2610   12.0994 C   0  0  0  0  0  0  0  0  0  0  0  0
  -12.9984   40.9631   14.1456 C   0  0  0  0  0  0  0  0  0  0  0  0
  -12.7672   40.6916   15.5635 C   0  0  2  0  0  0  0  0  0  0  0  0
  -12.9982   39.2411   15.7516 N   0  0  0  0  0  0  0  0  0  0  0  0
  -12.6842   38.5810   16.9796 C   0  0  0  0  0  0  0  0  0  0  0  0
  -12.3369   39.3100   17.9052 O   0  0  0  0  0  0  0  0  0  0  0  0
  -12.8023   37.0791   17.0773 C   0  0  2  0  0  0  0  0  0  0  0  0
  -13.6860   36.4775   16.0532 C   0  0  0  0  0  0  0  0  0  0  0  0
  -13.7278   34.9684   16.2452 C   0  0  0  0  0  0  0  0  0  0  0  0
  -14.6058   34.3106   15.2096 C   0  0  0  0  0  0  0  0  0  0  0  0
  -14.6279   32.8908   15.4420 N   0  0  0  0  0  0  0  0  0  0  0  0
  -15.2490   32.2380   16.5213 C   0  0  0  0  0  0  0  0  0  0  0  0
  -15.1444   30.7981   16.5657 N   0  0  0  0  0  0  0  0  0  0  0  0
  -15.8927   32.8422   17.4487 N   0  0  0  0  0  0  0  0  0  0  0  0
  -12.9115   36.5854   18.4137 N   0  0  0  0  0  0  0  0  0  0  0  0
  -11.8583   36.4236   19.3559 C   0  0  0  0  0  0  0  0  0  0  0  0
  -10.7562   36.8656   19.0152 O   0  0  0  0  0  0  0  0  0  0  0  0
  -12.1049   35.7498   20.6958 C   0  0  2  0  0  0  0  0  0  0  0  0
  -13.3917   36.1899   21.2866 C   0  0  0  0  0  0  0  0  0  0  0  0
  -13.6422   35.5119   22.6363 C   0  0  0  0  0  0  0  0  0  0  0  0
  -14.9502   35.9741   23.2000 C   0  0  0  0  0  0  0  0  0  0  0  0
  -16.0800   35.6925   22.3690 N   0  0  0  0  0  0  0  0  0  0  0  0
  -16.6077   34.4163   22.0804 C   0  0  0  0  0  0  0  0  0  0  0  0
  -17.7550   34.3959   21.1963 N   0  0  0  0  0  0  0  0  0  0  0  0
  -16.1419   33.3154   22.5368 N   0  0  0  0  0  0  0  0  0  0  0  0
  -10.9516   35.8414   21.5682 N   0  0  0  0  0  0  0  0  0  0  0  0
   -9.7897   35.0743   21.3364 C   0  0  0  0  0  0  0  0  0  0  0  0
   -9.8181   34.4134   20.2653 O   0  0  0  0  0  0  0  0  0  0  0  0
   -8.5797   34.9630   22.1596 C   0  0  2  0  0  0  0  0  0  0  0  0
   -8.0504   36.2400   22.7234 C   0  0  1  0  0  0  0  0  0  0  0  0
   -8.9053   36.7433   23.8776 C   0  0  0  0  0  0  0  0  0  0  0  0
   -6.8187   35.8929   23.3740 O   0  0  0  0  0  0  0  0  0  0  0  0
   -7.4949   34.3940   21.3173 N   0  0  0  0  0  0  0  0  0  0  0  0
   -6.7095   33.2962   21.7848 C   0  0  0  0  0  0  0  0  0  0  0  0
   -6.9998   32.8914   22.9194 O   0  0  0  0  0  0  0  0  0  0  0  0
   -5.6186   32.6980   20.9429 C   0  0  2  0  0  0  0  0  0  0  0  0
   -4.3361   32.7590   21.7008 C   0  0  0  0  0  0  0  0  0  0  0  0
   -4.5182   31.9899   22.8653 O   0  0  0  0  0  0  0  0  0  0  0  0
   -5.6191   33.4443   19.6919 N   0  0  0  0  0  0  0  0  0  0  0  0
   -6.1174   32.8179   18.4733 C   0  0  0  0  0  0  0  0  0  0  0  0
   -6.5492   31.6704   18.6795 O   0  0  0  0  0  0  0  0  0  0  0  0
   -6.1280   33.4101   17.1683 C   0  0  2  0  0  0  0  0  0  0  0  0
   -5.1597   32.6559   16.2466 C   0  0  0  0  0  0  0  0  0  0  0  0
   -5.6064   31.1973   16.2251 C   0  0  0  0  0  0  0  0  0  0  0  0
   -4.7381   30.4232   15.2608 C   0  0  0  0  0  0  0  0  0  0  0  0
   -5.0898   29.0512   15.0796 N   0  0  0  0  0  0  0  0  0  0  0  0
   -3.7710   30.9643   14.6626 O   0  0  0  0  0  0  0  0  0  0  0  0
   -5.8110   34.8432   17.1598 N   0  0  0  0  0  0  0  0  0  0  0  0
   -5.0323   35.5309   16.2289 C   0  0  0  0  0  0  0  0  0  0  0  0
   -4.3849   34.7673   15.4262 O   0  0  0  0  0  0  0  0  0  0  0  0
   -4.8117   36.9509   16.0176 C   0  0  2  0  0  0  0  0  0  0  0  0
   -3.3507   37.3598   16.1840 C   0  0  0  0  0  0  0  0  0  0  0  0
   -2.7987   37.0773   17.5048 C   0  0  0  0  0  0  0  0  0  0  0  0
   -3.5099   36.5094   18.3870 O   0  0  0  0  0  0  0  0  0  0  0  0
   -1.4788   37.4527   17.7532 O   0  0  0  0  0  0  0  0  0  0  0  0
   -5.6842   37.8946   16.6658 N   0  0  0  0  0  0  0  0  0  0  0  0
   -6.7243   38.5343   15.8820 C   0  0  0  0  0  0  0  0  0  0  0  0
   -6.8428   38.0033   14.7391 O   0  0  0  0  0  0  0  0  0  0  0  0
   -7.5851   39.6237   16.2220 C   0  0  2  0  0  0  0  0  0  0  0  0
   -7.3417   40.8095   15.2255 C   0  0  0  0  0  0  0  0  0  0  0  0
   -7.6164   40.4072   13.8491 C   0  0  0  0  0  0  0  0  0  0  0  0
   -6.6595   39.9808   12.9383 C   0  0  0  0  0  0  0  0  0  0  0  0
   -7.0535   39.6101   11.6569 C   0  0  0  0  0  0  0  0  0  0  0  0
   -8.3682   39.6482   11.2479 C   0  0  0  0  0  0  0  0  0  0  0  0
   -9.3179   40.0664   12.1386 C   0  0  0  0  0  0  0  0  0  0  0  0
   -8.9176   40.4308   13.4031 C   0  0  0  0  0  0  0  0  0  0  0  0
   -7.4463   40.1629   17.5499 N   0  0  0  0  0  0  0  0  0  0  0  0
   -8.4631   41.0639   18.0468 C   0  0  0  0  0  0  0  0  0  0  0  0
   -9.3781   41.3125   17.2590 O   0  0  0  0  0  0  0  0  0  0  0  0
   -8.4634   41.6807   19.3767 C   0  0  2  0  0  0  0  0  0  0  0  0
   -9.1479   40.6772   20.3061 C   0  0  0  0  0  0  0  0  0  0  0  0
   -9.2177   41.2232   21.7150 C   0  0  0  0  0  0  0  0  0  0  0  0
   -9.9618   40.2596   22.5698 C   0  0  0  0  0  0  0  0  0  0  0  0
  -10.0006   40.3864   24.0064 N   0  0  0  0  0  0  0  0  0  0  0  0
  -10.5719   39.3116   21.9788 O   0  0  0  0  0  0  0  0  0  0  0  0
   -9.3739   42.8578   19.2854 N   0  0  0  0  0  0  0  0  0  0  0  0
   -8.9272   44.1478   19.7127 C   0  0  0  0  0  0  0  0  0  0  0  0
   -7.7687   44.1673   20.1677 O   0  0  0  0  0  0  0  0  0  0  0  0
   -9.7289   45.3842   19.6460 C   0  0  1  0  0  0  0  0  0  0  0  0
  -11.0198   45.2611   19.0360 N   0  0  0  0  0  0  0  0  0  0  0  0
   -9.7127   46.2176   20.8671 C   0  0  0  0  0  0  0  0  0  0  0  0
  -10.2557   45.5805   22.4026 S   0  0  0  0  0  0  0  0  0  0  0  0
  -12.3315   45.1157   22.3617 S   0  0  0  0  0  0  0  0  0  0  0  0
  -12.4280   43.4095   21.8810 C   0  0  0  0  0  0  0  0  0  0  0  0
  -13.8416   42.9087   21.5772 C   0  0  1  0  0  0  0  0  0  0  0  0
  -14.7258   43.0406   22.7242 C   0  0  0  0  0  0  0  0  0  0  0  0
  -14.4743   43.8743   23.6576 O   0  0  0  0  0  0  0  0  0  0  0  0
  -15.8791   42.2561   22.8424 O   0  0  0  0  0  0  0  0  0  0  0  0
  -14.3122   43.5586   20.3527 N   0  0  0  0  0  0  0  0  0  0  0  0
  -13.9179   42.9688   19.1173 C   0  0  0  0  0  0  0  0  0  0  0  0
  -13.2276   41.9513   19.1955 O   0  0  0  0  0  0  0  0  0  0  0  0
  -14.3135   43.5567   17.7769 C   0  0  2  0  0  0  0  0  0  0  0  0
  -15.7660   43.6026   17.5304 C   0  0  0  0  0  0  0  0  0  0  0  0
  -16.1238   44.2096   16.1856 C   0  0  0  0  0  0  0  0  0  0  0  0
  -15.6196   45.6276   16.0749 C   0  0  0  0  0  0  0  0  0  0  0  0
  -16.0133   46.1713   14.7233 C   0  0  0  0  0  0  0  0  0  0  0  0
  -15.4455   45.4073   13.6450 N   0  0  0  0  0  0  0  0  0  0  0  0
  -13.5467   42.8306   16.7497 N   0  0  0  0  0  0  0  0  0  0  0  0
  -13.6520   41.4306   16.5446 C   0  0  0  0  0  0  0  0  0  0  0  0
  -14.5169   40.8586   17.2269 O   0  0  0  0  0  0  0  0  0  0  0  0
  1  2  1  0
  2  3  1  0
  2  4  1  0
  5  4  1  6
  5  6  1  0
  6  7  1  0
  7  8  2  0
  7  9  1  0
  9 10  1  6
 10 11  1  0
 11 12  1  0
 12 13  1  0
 13 14  1  0
 14 15  1  0
 14 16  2  0
  9 17  1  0
 17 18  1  0
 18 19  2  0
 18 20  1  0
 20 21  1  1
 21 22  1  0
 22 23  1  0
 23 24  1  0
 24 25  1  0
 25 26  1  0
 25 27  2  0
 20 28  1  0
 28 29  1  0
 29 30  2  0
 29 31  1  0
 31 32  1  0
 32 33  1  1
 32 34  1  0
 31 35  1  6
 35 36  1  0
 36 37  2  0
 36 38  1  0
 38 39  1  1
 39 40  1  0
 38 41  1  0
 41 42  1  0
 42 43  2  0
 42 44  1  0
 44 45  1  6
 45 46  1  0
 46 47  1  0
 47 48  1  0
 47 49  2  0
 44 50  1  0
 50 51  1  0
 51 52  2  0
 51 53  1  0
 53 54  1  1
 54 55  1  0
 55 56  2  0
 55 57  1  0
 53 58  1  0
 58 59  1  0
 59 60  2  0
 59 61  1  0
 61 62  1  6
 62 63  1  0
 63 64  2  0
 64 65  1  0
 65 66  2  0
 66 67  1  0
 67 68  2  0
 61 69  1  0
 69 70  1  0
 70 71  2  0
 70 72  1  0
 72 73  1  1
 73 74  1  0
 74 75  1  0
 75 76  1  0
 75 77  2  0
 72 78  1  0
 78 79  1  0
 79 80  2  0
 79 81  1  0
 81 82  1  1
 81 83  1  0
 83 84  1  0
 84 85  1  0
 85 86  1  0
 86 87  1  0
 87 88  1  1
 88 89  2  0
 88 90  1  0
 87 91  1  0
 91 92  1  0
 92 93  2  0
 92 94  1  0
 94 95  1  6
 95 96  1  0
 96 97  1  0
 97 98  1  0
 98 99  1  0
 94100  1  0
100101  1  0
101102  2  0
101  5  1  0
 68 63  1  0
M  CHG  6  16   1  27   1  57  -1  82   1  90  -1  99   1
M  END
>  <shape_align_shape_tanimoto>  (3) 
0.24428885030611786

>  <shape_align_color_tanimoto>  (3) 
0.024574826984503813

>  <metric>  (3) 
combo

>  <metric_score>  (3) 
0.134

>  <template_pid>  (3) 
5TH2

>  <template_shape_score>  (3) 
0.244

>  <template_color_score>  (3) 
0.025

>  <template_combo_score>  (3) 
0.134

$$$$
