6RNU_shape_pose
     RDKit          3D

 19 20  0  0  0  0  0  0  0  0999 V2000
  121.3317   91.6196  104.5785 O   0  0  0  0  0  0  0  0  0  0  0  0
  121.3614   90.5937  105.3316 C   0  0  0  0  0  0  0  0  0  0  0  0
  121.9644   89.4073  104.9371 O   0  0  0  0  0  0  0  0  0  0  0  0
  120.7410   90.6685  106.6524 C   0  0  0  0  0  0  0  0  0  0  0  0
  120.1320   91.8301  107.0797 C   0  0  0  0  0  0  0  0  0  0  0  0
  119.5442   91.8893  108.3400 C   0  0  0  0  0  0  0  0  0  0  0  0
  119.5615   90.7761  109.1903 C   0  0  0  0  0  0  0  0  0  0  0  0
  118.9211   90.9255  110.4847 C   0  0  0  0  0  0  0  0  0  0  0  0
  118.0510   90.0023  111.0246 C   0  0  0  0  0  0  0  0  0  0  0  0
  117.4815   90.2219  112.2752 C   0  0  0  0  0  0  0  0  0  0  0  0
  117.8078   91.3777  112.9546 C   0  0  0  0  0  0  0  0  0  0  0  0
  117.2383   91.5661  114.1712 F   0  0  0  0  0  0  0  0  0  0  0  0
  118.6735   92.3281  112.4520 C   0  0  0  0  0  0  0  0  0  0  0  0
  119.2365   92.0903  111.1932 C   0  0  0  0  0  0  0  0  0  0  0  0
  120.1701   89.6142  108.7643 C   0  0  0  0  0  0  0  0  0  0  0  0
  120.2124   88.2215  109.7949 S   0  0  0  0  0  6  0  0  0  0  0  0
  120.3877   88.5543  111.2501 O   0  0  0  0  0  0  0  0  0  0  0  0
  121.4768   87.4568  109.4167 O   0  0  0  0  0  0  0  0  0  0  0  0
  120.7454   89.5846  107.5079 C   0  0  0  0  0  0  0  0  0  0  0  0
  1  2  2  0
  2  3  1  0
  2  4  1  0
  4  5  2  0
  5  6  1  0
  6  7  2  0
  7  8  1  0
  8  9  2  0
  9 10  1  0
 10 11  2  0
 11 12  1  0
 11 13  1  0
 13 14  2  0
  7 15  1  0
 15 16  1  0
 16 17  2  0
 16 18  2  0
 15 19  2  0
 19  4  1  0
 14  8  1  0
M  CHG  1   3  -1
M  END
>  <shape_align_shape_tanimoto>  (1) 
0.57149864260749761

>  <shape_align_color_tanimoto>  (1) 
0.065197740983138228

>  <metric>  (1) 
shape

>  <metric_score>  (1) 
0.571

>  <template_pid>  (1) 
6RNU

>  <template_shape_score>  (1) 
0.571

>  <template_color_score>  (1) 
0.065

>  <template_combo_score>  (1) 
0.318

$$$$
6RNU_color_pose
     RDKit          3D

 19 20  0  0  0  0  0  0  0  0999 V2000
  122.6550   86.7954  106.7754 O   0  0  0  0  0  0  0  0  0  0  0  0
  122.1707   86.8764  107.9428 C   0  0  0  0  0  0  0  0  0  0  0  0
  122.3544   85.8545  108.8680 O   0  0  0  0  0  0  0  0  0  0  0  0
  121.4040   88.0572  108.3380 C   0  0  0  0  0  0  0  0  0  0  0  0
  121.2139   89.0823  107.4250 C   0  0  0  0  0  0  0  0  0  0  0  0
  120.4890   90.1970  107.8018 C   0  0  0  0  0  0  0  0  0  0  0  0
  119.9434   90.3193  109.0750 C   0  0  0  0  0  0  0  0  0  0  0  0
  119.2149   91.5372  109.3640 C   0  0  0  0  0  0  0  0  0  0  0  0
  119.4171   92.3392  110.4598 C   0  0  0  0  0  0  0  0  0  0  0  0
  118.6892   93.4894  110.6909 C   0  0  0  0  0  0  0  0  0  0  0  0
  117.7302   93.8239  109.7737 C   0  0  0  0  0  0  0  0  0  0  0  0
  117.0034   94.9437  109.9749 F   0  0  0  0  0  0  0  0  0  0  0  0
  117.4815   93.0587  108.6544 C   0  0  0  0  0  0  0  0  0  0  0  0
  118.2303   91.9217  108.4646 C   0  0  0  0  0  0  0  0  0  0  0  0
  120.1385   89.2954  109.9713 C   0  0  0  0  0  0  0  0  0  0  0  0
  119.4914   89.3207  111.5893 S   0  0  0  0  0  6  0  0  0  0  0  0
  120.5253   89.7723  112.5844 O   0  0  0  0  0  0  0  0  0  0  0  0
  118.2531   90.1547  111.6040 O   0  0  0  0  0  0  0  0  0  0  0  0
  120.8685   88.1597  109.6110 C   0  0  0  0  0  0  0  0  0  0  0  0
  1  2  2  0
  2  3  1  0
  2  4  1  0
  4  5  2  0
  5  6  1  0
  6  7  2  0
  7  8  1  0
  8  9  2  0
  9 10  1  0
 10 11  2  0
 11 12  1  0
 11 13  1  0
 13 14  2  0
  7 15  1  0
 15 16  1  0
 16 17  2  0
 16 18  2  0
 15 19  2  0
 19  4  1  0
 14  8  1  0
M  CHG  1   3  -1
M  END
>  <shape_align_shape_tanimoto>  (2) 
0.56566035566150785

>  <shape_align_color_tanimoto>  (2) 
0.077492132897658217

>  <metric>  (2) 
color

>  <metric_score>  (2) 
0.077

>  <template_pid>  (2) 
6RNU

>  <template_shape_score>  (2) 
0.566

>  <template_color_score>  (2) 
0.077

>  <template_combo_score>  (2) 
0.322

$$$$
6RNU_combo_pose
     RDKit          3D

 19 20  0  0  0  0  0  0  0  0999 V2000
  122.6550   86.7954  106.7754 O   0  0  0  0  0  0  0  0  0  0  0  0
  122.1707   86.8764  107.9428 C   0  0  0  0  0  0  0  0  0  0  0  0
  122.3544   85.8545  108.8680 O   0  0  0  0  0  0  0  0  0  0  0  0
  121.4040   88.0572  108.3380 C   0  0  0  0  0  0  0  0  0  0  0  0
  121.2139   89.0823  107.4250 C   0  0  0  0  0  0  0  0  0  0  0  0
  120.4890   90.1970  107.8018 C   0  0  0  0  0  0  0  0  0  0  0  0
  119.9434   90.3193  109.0750 C   0  0  0  0  0  0  0  0  0  0  0  0
  119.2149   91.5372  109.3640 C   0  0  0  0  0  0  0  0  0  0  0  0
  119.4171   92.3392  110.4598 C   0  0  0  0  0  0  0  0  0  0  0  0
  118.6892   93.4894  110.6909 C   0  0  0  0  0  0  0  0  0  0  0  0
  117.7302   93.8239  109.7737 C   0  0  0  0  0  0  0  0  0  0  0  0
  117.0034   94.9437  109.9749 F   0  0  0  0  0  0  0  0  0  0  0  0
  117.4815   93.0587  108.6544 C   0  0  0  0  0  0  0  0  0  0  0  0
  118.2303   91.9217  108.4646 C   0  0  0  0  0  0  0  0  0  0  0  0
  120.1385   89.2954  109.9713 C   0  0  0  0  0  0  0  0  0  0  0  0
  119.4914   89.3207  111.5893 S   0  0  0  0  0  6  0  0  0  0  0  0
  120.5253   89.7723  112.5844 O   0  0  0  0  0  0  0  0  0  0  0  0
  118.2531   90.1547  111.6040 O   0  0  0  0  0  0  0  0  0  0  0  0
  120.8685   88.1597  109.6110 C   0  0  0  0  0  0  0  0  0  0  0  0
  1  2  2  0
  2  3  1  0
  2  4  1  0
  4  5  2  0
  5  6  1  0
  6  7  2  0
  7  8  1  0
  8  9  2  0
  9 10  1  0
 10 11  2  0
 11 12  1  0
 11 13  1  0
 13 14  2  0
  7 15  1  0
 15 16  1  0
 16 17  2  0
 16 18  2  0
 15 19  2  0
 19  4  1  0
 14  8  1  0
M  CHG  1   3  -1
M  END
>  <shape_align_shape_tanimoto>  (3) 
0.56566035566150785

>  <shape_align_color_tanimoto>  (3) 
0.077492132897658217

>  <metric>  (3) 
combo

>  <metric_score>  (3) 
0.322

>  <template_pid>  (3) 
6RNU

>  <template_shape_score>  (3) 
0.566

>  <template_color_score>  (3) 
0.077

>  <template_combo_score>  (3) 
0.322

$$$$
