5UJV_shape_pose
     RDKit          3D

 19 19  0  0  0  0  0  0  0  0999 V2000
   80.9259    8.9566   19.8205 C   0  0  0  0  0  0  0  0  0  0  0  0
   81.2262    9.7577   21.0483 C   0  0  0  0  0  0  0  0  0  0  0  0
   81.4966    9.1483   22.1915 C   0  0  0  0  0  0  0  0  0  0  0  0
   81.7913    9.9435   23.3963 C   0  0  0  0  0  0  0  0  0  0  0  0
   81.5622    9.5171   24.5341 O   0  0  0  0  0  0  0  0  0  0  0  0
   82.3871   11.3011   23.1237 C   0  0  0  0  0  0  0  0  0  0  0  0
   81.4071   11.9666   22.1775 C   0  0  0  0  0  0  0  0  0  0  0  0
   80.0886   12.0369   22.9562 C   0  0  0  0  0  0  0  0  0  0  0  0
   81.8836   13.3792   21.9958 C   0  0  0  0  0  0  0  0  0  0  0  0
   81.1987   11.2355   20.8937 C   0  0  2  0  0  0  0  0  0  0  0  0
   79.8840   11.5179   20.4502 O   0  0  0  0  0  0  0  0  0  0  0  0
   82.1711   11.6117   19.8178 C   0  0  0  0  0  0  0  0  0  0  0  0
   82.0423   12.7317   19.1338 C   0  0  0  0  0  0  0  0  0  0  0  0
   82.9191   13.2095   18.0680 C   0  0  0  0  0  0  0  0  0  0  0  0
   82.0599   13.2543   16.7954 C   0  0  0  0  0  0  0  0  0  0  0  0
   84.0929   12.3634   17.7386 C   0  0  0  0  0  0  0  0  0  0  0  0
   85.0611   12.1602   18.8344 C   0  0  0  0  0  0  0  0  0  0  0  0
   84.9851   12.6942   19.9686 O   0  0  0  0  0  0  0  0  0  0  0  0
   86.1349   11.3154   18.5898 O   0  0  0  0  0  0  0  0  0  0  0  0
  1  2  1  0
  2  3  2  0
  3  4  1  0
  4  5  2  0
  4  6  1  0
  6  7  1  0
  7  8  1  0
  7  9  1  0
  7 10  1  0
 10 11  1  6
 10 12  1  0
 12 13  2  0
 13 14  1  0
 14 15  1  0
 14 16  1  0
 16 17  1  0
 17 18  2  0
 17 19  1  0
 10  2  1  0
M  CHG  1  19  -1
M  END
>  <shape_align_shape_tanimoto>  (1) 
0.70605861157608496

>  <shape_align_color_tanimoto>  (1) 
0.075037230254638362

>  <metric>  (1) 
shape

>  <metric_score>  (1) 
0.706

>  <template_pid>  (1) 
5UJV

>  <template_shape_score>  (1) 
0.706

>  <template_color_score>  (1) 
0.075

>  <template_combo_score>  (1) 
0.391

$$$$
5UJV_color_pose
     RDKit          3D

 19 19  0  0  0  0  0  0  0  0999 V2000
   78.9047   12.0455   21.9225 C   0  0  0  0  0  0  0  0  0  0  0  0
   80.1402   11.3502   22.2635 C   0  0  0  0  0  0  0  0  0  0  0  0
   80.2577   10.7087   23.4286 C   0  0  0  0  0  0  0  0  0  0  0  0
   81.5132   10.0217   23.7368 C   0  0  0  0  0  0  0  0  0  0  0  0
   81.8413    9.8566   24.9591 O   0  0  0  0  0  0  0  0  0  0  0  0
   82.4106    9.5139   22.6579 C   0  0  0  0  0  0  0  0  0  0  0  0
   81.7169    9.8297   21.3345 C   0  0  0  0  0  0  0  0  0  0  0  0
   82.5671    9.4808   20.1497 C   0  0  0  0  0  0  0  0  0  0  0  0
   80.4996    8.9204   21.2864 C   0  0  0  0  0  0  0  0  0  0  0  0
   81.3466   11.2916   21.3765 C   0  0  2  0  0  0  0  0  0  0  0  0
   82.3553   11.9638   22.0939 O   0  0  0  0  0  0  0  0  0  0  0  0
   81.1189   11.9126   20.0708 C   0  0  0  0  0  0  0  0  0  0  0  0
   82.0603   12.6364   19.4735 C   0  0  0  0  0  0  0  0  0  0  0  0
   81.7780   13.2373   18.1629 C   0  0  0  0  0  0  0  0  0  0  0  0
   81.9723   14.7424   18.2422 C   0  0  0  0  0  0  0  0  0  0  0  0
   82.7636   12.7091   17.1431 C   0  0  0  0  0  0  0  0  0  0  0  0
   84.1610   13.0421   17.5290 C   0  0  0  0  0  0  0  0  0  0  0  0
   84.6314   14.1890   17.3333 O   0  0  0  0  0  0  0  0  0  0  0  0
   84.9866   12.0773   18.1221 O   0  0  0  0  0  0  0  0  0  0  0  0
  1  2  1  0
  2  3  2  0
  3  4  1  0
  4  5  2  0
  4  6  1  0
  6  7  1  0
  7  8  1  0
  7  9  1  0
  7 10  1  0
 10 11  1  1
 10 12  1  0
 12 13  2  0
 13 14  1  0
 14 15  1  0
 14 16  1  0
 16 17  1  0
 17 18  2  0
 17 19  1  0
 10  2  1  0
M  CHG  1  19  -1
M  END
>  <shape_align_shape_tanimoto>  (2) 
0.55658270371056939

>  <shape_align_color_tanimoto>  (2) 
0.15729730772392173

>  <metric>  (2) 
color

>  <metric_score>  (2) 
0.157

>  <template_pid>  (2) 
5UJV

>  <template_shape_score>  (2) 
0.557

>  <template_color_score>  (2) 
0.157

>  <template_combo_score>  (2) 
0.357

$$$$
5UJV_combo_pose
     RDKit          3D

 19 19  0  0  0  0  0  0  0  0999 V2000
   80.9259    8.9566   19.8205 C   0  0  0  0  0  0  0  0  0  0  0  0
   81.2262    9.7577   21.0483 C   0  0  0  0  0  0  0  0  0  0  0  0
   81.4966    9.1483   22.1915 C   0  0  0  0  0  0  0  0  0  0  0  0
   81.7913    9.9435   23.3963 C   0  0  0  0  0  0  0  0  0  0  0  0
   81.5622    9.5171   24.5341 O   0  0  0  0  0  0  0  0  0  0  0  0
   82.3871   11.3011   23.1237 C   0  0  0  0  0  0  0  0  0  0  0  0
   81.4071   11.9666   22.1775 C   0  0  0  0  0  0  0  0  0  0  0  0
   80.0886   12.0369   22.9562 C   0  0  0  0  0  0  0  0  0  0  0  0
   81.8836   13.3792   21.9958 C   0  0  0  0  0  0  0  0  0  0  0  0
   81.1987   11.2355   20.8937 C   0  0  2  0  0  0  0  0  0  0  0  0
   79.8840   11.5179   20.4502 O   0  0  0  0  0  0  0  0  0  0  0  0
   82.1711   11.6117   19.8178 C   0  0  0  0  0  0  0  0  0  0  0  0
   82.0423   12.7317   19.1338 C   0  0  0  0  0  0  0  0  0  0  0  0
   82.9191   13.2095   18.0680 C   0  0  0  0  0  0  0  0  0  0  0  0
   82.0599   13.2543   16.7954 C   0  0  0  0  0  0  0  0  0  0  0  0
   84.0929   12.3634   17.7386 C   0  0  0  0  0  0  0  0  0  0  0  0
   85.0611   12.1602   18.8344 C   0  0  0  0  0  0  0  0  0  0  0  0
   84.9851   12.6942   19.9686 O   0  0  0  0  0  0  0  0  0  0  0  0
   86.1349   11.3154   18.5898 O   0  0  0  0  0  0  0  0  0  0  0  0
  1  2  1  0
  2  3  2  0
  3  4  1  0
  4  5  2  0
  4  6  1  0
  6  7  1  0
  7  8  1  0
  7  9  1  0
  7 10  1  0
 10 11  1  6
 10 12  1  0
 12 13  2  0
 13 14  1  0
 14 15  1  0
 14 16  1  0
 16 17  1  0
 17 18  2  0
 17 19  1  0
 10  2  1  0
M  CHG  1  19  -1
M  END
>  <shape_align_shape_tanimoto>  (3) 
0.70605861157608496

>  <shape_align_color_tanimoto>  (3) 
0.075037230254638362

>  <metric>  (3) 
combo

>  <metric_score>  (3) 
0.391

>  <template_pid>  (3) 
5UJV

>  <template_shape_score>  (3) 
0.706

>  <template_color_score>  (3) 
0.075

>  <template_combo_score>  (3) 
0.391

$$$$
