3GOL_shape_pose
     RDKit          3D

 30 33  0  0  0  0  0  0  0  0999 V2000
  -23.9855   -7.2596   26.0855 C   0  0  0  0  0  0  0  0  0  0  0  0
  -24.7990   -7.6865   27.2308 C   0  0  0  0  0  0  0  0  0  0  0  0
  -25.8700   -8.3388   26.9213 O   0  0  0  0  0  0  0  0  0  0  0  0
  -24.5958   -7.4843   28.6084 N   0  0  0  0  0  0  0  0  0  0  0  0
  -23.2808   -7.0327   29.0005 C   0  0  0  0  0  0  0  0  0  0  0  0
  -22.2868   -7.6244   28.2744 C   0  0  0  0  0  0  0  0  0  0  0  0
  -20.9894   -7.2549   28.5412 C   0  0  0  0  0  0  0  0  0  0  0  0
  -20.6909   -6.3038   29.5261 C   0  0  0  0  0  0  0  0  0  0  0  0
  -21.6933   -5.7008   30.2677 C   0  0  0  0  0  0  0  0  0  0  0  0
  -21.4466   -4.7567   31.2515 O   0  0  0  0  0  0  0  0  0  0  0  0
  -22.9824   -6.0808   29.9879 C   0  0  0  0  0  0  0  0  0  0  0  0
  -23.9179   -5.3786   30.8421 N   0  0  0  0  0  0  0  0  0  0  0  0
  -25.3235   -5.3523   30.5604 C   0  0  0  0  0  0  0  0  0  0  0  0
  -26.0481   -6.2790   29.9993 C   0  0  0  0  0  0  0  0  0  0  0  0
  -27.4835   -5.9815   29.8284 C   0  0  0  0  0  0  0  0  0  0  0  0
  -28.1511   -6.6128   28.9662 O   0  0  0  0  0  0  0  0  0  0  0  0
  -28.1905   -4.9667   30.6273 C   0  0  0  0  0  0  0  0  0  0  0  0
  -27.2977   -4.1856   31.5343 C   0  0  0  0  0  0  0  0  0  0  0  0
  -27.2549   -4.7227   32.9590 C   0  0  0  0  0  0  0  0  0  0  0  0
  -27.8856   -2.7819   31.6654 C   0  0  0  0  0  0  0  0  0  0  0  0
  -25.8956   -4.0421   31.0333 C   0  0  0  0  0  0  0  0  0  0  0  0
  -25.7743   -7.6657   29.4609 C   0  0  2  0  0  0  0  0  0  0  0  0
  -25.6236   -8.5536   30.6084 C   0  0  0  0  0  0  0  0  0  0  0  0
  -26.3517   -8.2099   31.7664 C   0  0  0  0  0  0  0  0  0  0  0  0
  -26.2549   -8.9226   32.9329 C   0  0  0  0  0  0  0  0  0  0  0  0
  -25.4325  -10.0220   33.0333 C   0  0  0  0  0  0  0  0  0  0  0  0
  -25.2843  -10.9509   34.5040 Cl  0  0  0  0  0  0  0  0  0  0  0  0
  -24.7170  -10.3799   31.9310 C   0  0  0  0  0  0  0  0  0  0  0  0
  -24.8186   -9.6487   30.7355 C   0  0  0  0  0  0  0  0  0  0  0  0
  -23.9403  -10.2499   29.3828 Cl  0  0  0  0  0  0  0  0  0  0  0  0
  1  2  1  0
  2  3  2  0
  2  4  1  0
  4  5  1  0
  5  6  2  0
  6  7  1  0
  7  8  2  0
  8  9  1  0
  9 10  1  0
  9 11  2  0
 11 12  1  0
 12 13  1  0
 13 14  2  0
 14 15  1  0
 15 16  2  0
 15 17  1  0
 17 18  1  0
 18 19  1  0
 18 20  1  0
 18 21  1  0
 14 22  1  0
 22 23  1  1
 23 24  2  0
 24 25  1  0
 25 26  2  0
 26 27  1  0
 26 28  1  0
 28 29  2  0
 29 30  1  0
 22  4  1  0
 29 23  1  0
 11  5  1  0
 21 13  1  0
M  END
>  <shape_align_shape_tanimoto>  (1) 
0.70068818948736511

>  <shape_align_color_tanimoto>  (1) 
0.015992400871659866

>  <metric>  (1) 
shape

>  <metric_score>  (1) 
0.701

>  <template_pid>  (1) 
3GOL

>  <template_shape_score>  (1) 
0.701

>  <template_color_score>  (1) 
0.016

>  <template_combo_score>  (1) 
0.358

$$$$
3GOL_color_pose
     RDKit          3D

 30 33  0  0  0  0  0  0  0  0999 V2000
  -25.1031  -10.6738   27.5604 C   0  0  0  0  0  0  0  0  0  0  0  0
  -25.3187   -9.6989   28.6510 C   0  0  0  0  0  0  0  0  0  0  0  0
  -25.7412  -10.2083   29.7365 O   0  0  0  0  0  0  0  0  0  0  0  0
  -25.0944   -8.3052   28.5954 N   0  0  0  0  0  0  0  0  0  0  0  0
  -24.9137   -7.8004   27.2490 C   0  0  0  0  0  0  0  0  0  0  0  0
  -25.8258   -8.3469   26.3547 C   0  0  0  0  0  0  0  0  0  0  0  0
  -25.8495   -8.0288   25.0255 C   0  0  0  0  0  0  0  0  0  0  0  0
  -24.8983   -7.1087   24.5876 C   0  0  0  0  0  0  0  0  0  0  0  0
  -23.9749   -6.5413   25.4437 C   0  0  0  0  0  0  0  0  0  0  0  0
  -23.0304   -5.6266   25.0072 O   0  0  0  0  0  0  0  0  0  0  0  0
  -23.9711   -6.8785   26.7805 C   0  0  0  0  0  0  0  0  0  0  0  0
  -22.9841   -6.2171   27.5555 N   0  0  0  0  0  0  0  0  0  0  0  0
  -22.9393   -6.1544   28.9755 C   0  0  0  0  0  0  0  0  0  0  0  0
  -23.7574   -6.6772   29.8562 C   0  0  0  0  0  0  0  0  0  0  0  0
  -23.4305   -6.4267   31.2760 C   0  0  0  0  0  0  0  0  0  0  0  0
  -24.3308   -6.4264   32.1676 O   0  0  0  0  0  0  0  0  0  0  0  0
  -22.0466   -6.1634   31.7384 C   0  0  0  0  0  0  0  0  0  0  0  0
  -21.0969   -5.8328   30.6473 C   0  0  0  0  0  0  0  0  0  0  0  0
  -20.2128   -4.6760   31.1223 C   0  0  0  0  0  0  0  0  0  0  0  0
  -20.1841   -7.0000   30.3537 C   0  0  0  0  0  0  0  0  0  0  0  0
  -21.7573   -5.3567   29.3826 C   0  0  0  0  0  0  0  0  0  0  0  0
  -24.9999   -7.4958   29.7728 C   0  0  2  0  0  0  0  0  0  0  0  0
  -25.1291   -8.3624   30.9824 C   0  0  0  0  0  0  0  0  0  0  0  0
  -23.9788   -9.0461   31.4046 C   0  0  0  0  0  0  0  0  0  0  0  0
  -24.1010   -9.8335   32.5355 C   0  0  0  0  0  0  0  0  0  0  0  0
  -25.2774   -9.9584   33.2305 C   0  0  0  0  0  0  0  0  0  0  0  0
  -25.4362  -10.9580   34.6680 Cl  0  0  0  0  0  0  0  0  0  0  0  0
  -26.4133   -9.2735   32.8005 C   0  0  0  0  0  0  0  0  0  0  0  0
  -26.3250   -8.4743   31.6685 C   0  0  0  0  0  0  0  0  0  0  0  0
  -27.7076   -7.5812   31.0637 Cl  0  0  0  0  0  0  0  0  0  0  0  0
  1  2  1  0
  2  3  2  0
  2  4  1  0
  4  5  1  0
  5  6  2  0
  6  7  1  0
  7  8  2  0
  8  9  1  0
  9 10  1  0
  9 11  2  0
 11 12  1  0
 12 13  1  0
 13 14  2  0
 14 15  1  0
 15 16  2  0
 15 17  1  0
 17 18  1  0
 18 19  1  0
 18 20  1  0
 18 21  1  0
 14 22  1  0
 22 23  1  1
 23 24  2  0
 24 25  1  0
 25 26  2  0
 26 27  1  0
 26 28  1  0
 28 29  2  0
 29 30  1  0
 22  4  1  0
 29 23  1  0
 11  5  1  0
 21 13  1  0
M  END
>  <shape_align_shape_tanimoto>  (2) 
0.49737834072778542

>  <shape_align_color_tanimoto>  (2) 
0.096208700360065277

>  <metric>  (2) 
color

>  <metric_score>  (2) 
0.096

>  <template_pid>  (2) 
3GOL

>  <template_shape_score>  (2) 
0.497

>  <template_color_score>  (2) 
0.096

>  <template_combo_score>  (2) 
0.297

$$$$
3GOL_combo_pose
     RDKit          3D

 30 33  0  0  0  0  0  0  0  0999 V2000
  -23.9855   -7.2596   26.0855 C   0  0  0  0  0  0  0  0  0  0  0  0
  -24.7990   -7.6865   27.2308 C   0  0  0  0  0  0  0  0  0  0  0  0
  -25.8700   -8.3388   26.9213 O   0  0  0  0  0  0  0  0  0  0  0  0
  -24.5958   -7.4843   28.6084 N   0  0  0  0  0  0  0  0  0  0  0  0
  -23.2808   -7.0327   29.0005 C   0  0  0  0  0  0  0  0  0  0  0  0
  -22.2868   -7.6244   28.2744 C   0  0  0  0  0  0  0  0  0  0  0  0
  -20.9894   -7.2549   28.5412 C   0  0  0  0  0  0  0  0  0  0  0  0
  -20.6909   -6.3038   29.5261 C   0  0  0  0  0  0  0  0  0  0  0  0
  -21.6933   -5.7008   30.2677 C   0  0  0  0  0  0  0  0  0  0  0  0
  -21.4466   -4.7567   31.2515 O   0  0  0  0  0  0  0  0  0  0  0  0
  -22.9824   -6.0808   29.9879 C   0  0  0  0  0  0  0  0  0  0  0  0
  -23.9179   -5.3786   30.8421 N   0  0  0  0  0  0  0  0  0  0  0  0
  -25.3235   -5.3523   30.5604 C   0  0  0  0  0  0  0  0  0  0  0  0
  -26.0481   -6.2790   29.9993 C   0  0  0  0  0  0  0  0  0  0  0  0
  -27.4835   -5.9815   29.8284 C   0  0  0  0  0  0  0  0  0  0  0  0
  -28.1511   -6.6128   28.9662 O   0  0  0  0  0  0  0  0  0  0  0  0
  -28.1905   -4.9667   30.6273 C   0  0  0  0  0  0  0  0  0  0  0  0
  -27.2977   -4.1856   31.5343 C   0  0  0  0  0  0  0  0  0  0  0  0
  -27.2549   -4.7227   32.9590 C   0  0  0  0  0  0  0  0  0  0  0  0
  -27.8856   -2.7819   31.6654 C   0  0  0  0  0  0  0  0  0  0  0  0
  -25.8956   -4.0421   31.0333 C   0  0  0  0  0  0  0  0  0  0  0  0
  -25.7743   -7.6657   29.4609 C   0  0  2  0  0  0  0  0  0  0  0  0
  -25.6236   -8.5536   30.6084 C   0  0  0  0  0  0  0  0  0  0  0  0
  -26.3517   -8.2099   31.7664 C   0  0  0  0  0  0  0  0  0  0  0  0
  -26.2549   -8.9226   32.9329 C   0  0  0  0  0  0  0  0  0  0  0  0
  -25.4325  -10.0220   33.0333 C   0  0  0  0  0  0  0  0  0  0  0  0
  -25.2843  -10.9509   34.5040 Cl  0  0  0  0  0  0  0  0  0  0  0  0
  -24.7170  -10.3799   31.9310 C   0  0  0  0  0  0  0  0  0  0  0  0
  -24.8186   -9.6487   30.7355 C   0  0  0  0  0  0  0  0  0  0  0  0
  -23.9403  -10.2499   29.3828 Cl  0  0  0  0  0  0  0  0  0  0  0  0
  1  2  1  0
  2  3  2  0
  2  4  1  0
  4  5  1  0
  5  6  2  0
  6  7  1  0
  7  8  2  0
  8  9  1  0
  9 10  1  0
  9 11  2  0
 11 12  1  0
 12 13  1  0
 13 14  2  0
 14 15  1  0
 15 16  2  0
 15 17  1  0
 17 18  1  0
 18 19  1  0
 18 20  1  0
 18 21  1  0
 14 22  1  0
 22 23  1  1
 23 24  2  0
 24 25  1  0
 25 26  2  0
 26 27  1  0
 26 28  1  0
 28 29  2  0
 29 30  1  0
 22  4  1  0
 29 23  1  0
 11  5  1  0
 21 13  1  0
M  END
>  <shape_align_shape_tanimoto>  (3) 
0.70068818948736511

>  <shape_align_color_tanimoto>  (3) 
0.015992400871659866

>  <metric>  (3) 
combo

>  <metric_score>  (3) 
0.358

>  <template_pid>  (3) 
3GOL

>  <template_shape_score>  (3) 
0.701

>  <template_color_score>  (3) 
0.016

>  <template_combo_score>  (3) 
0.358

$$$$
