6DAR_shape_pose
     RDKit          3D

 30 34  0  0  0  0  0  0  0  0999 V2000
    3.8005    6.4263   19.0010 C   0  0  0  0  0  0  0  0  0  0  0  0
    3.6662    5.3381   18.0998 O   0  0  0  0  0  0  0  0  0  0  0  0
    2.5368    4.5331   18.0495 C   0  0  0  0  0  0  0  0  0  0  0  0
    1.4462    4.7061   18.8709 C   0  0  0  0  0  0  0  0  0  0  0  0
    0.3679    3.8594   18.7525 C   0  0  0  0  0  0  0  0  0  0  0  0
    0.3345    2.8112   17.8170 C   0  0  0  0  0  0  0  0  0  0  0  0
    1.4221    2.6420   17.0014 C   0  0  0  0  0  0  0  0  0  0  0  0
    1.5766    1.6159   15.9865 C   0  0  0  0  0  0  0  0  0  0  0  0
    1.4552    1.9820   14.7887 O   0  0  0  0  0  0  0  0  0  0  0  0
    1.8626    0.2454   16.2999 N   0  0  0  0  0  0  0  0  0  0  0  0
    2.0800   -0.7410   15.2243 C   0  0  0  0  0  0  0  0  0  0  0  0
    3.4222   -0.4583   14.5939 C   0  0  0  0  0  0  0  0  0  0  0  0
    3.4686    0.2293   13.3739 C   0  0  0  0  0  0  0  0  0  0  0  0
    4.6523    0.6001   12.7754 C   0  0  0  0  0  0  0  0  0  0  0  0
    5.8410    0.2708   13.4236 C   0  0  0  0  0  0  0  0  0  0  0  0
    5.8283   -0.3988   14.6139 C   0  0  0  0  0  0  0  0  0  0  0  0
    7.0644   -0.6897   15.3535 C   0  0  0  0  0  0  0  0  0  0  0  0
    8.3549   -0.3093   14.9790 C   0  0  0  0  0  0  0  0  0  0  0  0
    9.1881   -0.7335   15.9483 N   0  0  0  0  0  0  0  0  0  0  0  0
    8.5015   -1.3535   16.9032 C   0  0  0  0  0  0  0  0  0  0  0  0
    7.2220   -1.3187   16.5264 N   0  0  0  0  0  0  0  0  0  0  0  0
    9.3806   -1.8171   17.9965 C   0  0  0  0  0  0  0  0  0  0  0  0
   10.7584   -1.3545   17.5635 C   0  0  0  0  0  0  0  0  0  0  0  0
   10.6115   -0.7042   16.2390 C   0  0  0  0  0  0  0  0  0  0  0  0
    4.6119   -0.7618   15.1905 C   0  0  0  0  0  0  0  0  0  0  0  0
    1.8393   -0.2466   17.6450 C   0  0  0  0  0  0  0  0  0  0  0  0
    3.0854   -0.1513   18.4699 C   0  0  0  0  0  0  0  0  0  0  0  0
    2.9647   -0.7363   19.8919 C   0  0  0  0  0  0  0  0  0  0  0  0
    3.0955    0.7502   19.6810 C   0  0  0  0  0  0  0  0  0  0  0  0
    2.5180    3.5128   17.1288 C   0  0  0  0  0  0  0  0  0  0  0  0
  1  2  1  0
  2  3  1  0
  3  4  2  0
  4  5  1  0
  5  6  2  0
  6  7  1  0
  7  8  1  0
  8  9  2  0
  8 10  1  0
 10 11  1  0
 11 12  1  0
 12 13  2  0
 13 14  1  0
 14 15  2  0
 15 16  1  0
 16 17  1  0
 17 18  2  0
 18 19  1  0
 19 20  1  0
 20 21  2  0
 20 22  1  0
 22 23  1  0
 23 24  1  0
 16 25  2  0
 10 26  1  0
 26 27  1  0
 27 28  1  0
 28 29  1  0
  7 30  2  0
 30  3  1  0
 25 12  1  0
 29 27  1  0
 21 17  1  0
 24 19  1  0
M  END
>  <shape_align_shape_tanimoto>  (1) 
0.64419905249043419

>  <shape_align_color_tanimoto>  (1) 
0.032052733518387826

>  <metric>  (1) 
shape

>  <metric_score>  (1) 
0.644

>  <template_pid>  (1) 
6DAR

>  <template_shape_score>  (1) 
0.644

>  <template_color_score>  (1) 
0.032

>  <template_combo_score>  (1) 
0.338

$$$$
6DAR_color_pose
     RDKit          3D

 30 34  0  0  0  0  0  0  0  0999 V2000
    0.4001   -3.1289   20.0141 C   0  0  0  0  0  0  0  0  0  0  0  0
    0.3291   -1.9338   19.2935 O   0  0  0  0  0  0  0  0  0  0  0  0
    1.3848   -1.0573   19.1168 C   0  0  0  0  0  0  0  0  0  0  0  0
    2.6541   -1.2970   19.6592 C   0  0  0  0  0  0  0  0  0  0  0  0
    3.6448   -0.3674   19.4300 C   0  0  0  0  0  0  0  0  0  0  0  0
    3.4306    0.7847   18.6875 C   0  0  0  0  0  0  0  0  0  0  0  0
    2.1775    1.0302   18.1462 C   0  0  0  0  0  0  0  0  0  0  0  0
    1.9623    2.2432   17.3820 C   0  0  0  0  0  0  0  0  0  0  0  0
    2.0001    3.3322   18.0515 O   0  0  0  0  0  0  0  0  0  0  0  0
    1.7160    2.2643   15.9551 N   0  0  0  0  0  0  0  0  0  0  0  0
    1.7162    1.0116   15.2708 C   0  0  0  0  0  0  0  0  0  0  0  0
    2.8709    0.6274   14.4708 C   0  0  0  0  0  0  0  0  0  0  0  0
    2.7920    0.6220   13.0652 C   0  0  0  0  0  0  0  0  0  0  0  0
    3.8966    0.2798   12.3156 C   0  0  0  0  0  0  0  0  0  0  0  0
    5.1054   -0.0657   12.8694 C   0  0  0  0  0  0  0  0  0  0  0  0
    5.1964   -0.0626   14.2454 C   0  0  0  0  0  0  0  0  0  0  0  0
    6.4237   -0.3919   14.9554 C   0  0  0  0  0  0  0  0  0  0  0  0
    7.6291   -0.7374   14.3795 C   0  0  0  0  0  0  0  0  0  0  0  0
    8.4874   -0.9495   15.3927 N   0  0  0  0  0  0  0  0  0  0  0  0
    7.8789   -0.7544   16.5717 C   0  0  0  0  0  0  0  0  0  0  0  0
    6.6120   -0.4125   16.2844 N   0  0  0  0  0  0  0  0  0  0  0  0
    8.8136   -0.9790   17.6995 C   0  0  0  0  0  0  0  0  0  0  0  0
    9.8774   -1.8440   17.0544 C   0  0  0  0  0  0  0  0  0  0  0  0
    9.8598   -1.3230   15.6248 C   0  0  0  0  0  0  0  0  0  0  0  0
    4.0871    0.2791   14.9900 C   0  0  0  0  0  0  0  0  0  0  0  0
    1.4278    3.5738   15.4226 C   0  0  0  0  0  0  0  0  0  0  0  0
    2.5949    4.4350   15.0837 C   0  0  0  0  0  0  0  0  0  0  0  0
    3.6104    4.0940   14.0852 C   0  0  0  0  0  0  0  0  0  0  0  0
    2.6597    5.2137   13.8142 C   0  0  0  0  0  0  0  0  0  0  0  0
    1.1952    0.0917   18.3845 C   0  0  0  0  0  0  0  0  0  0  0  0
  1  2  1  0
  2  3  1  0
  3  4  2  0
  4  5  1  0
  5  6  2  0
  6  7  1  0
  7  8  1  0
  8  9  2  0
  8 10  1  0
 10 11  1  0
 11 12  1  0
 12 13  2  0
 13 14  1  0
 14 15  2  0
 15 16  1  0
 16 17  1  0
 17 18  2  0
 18 19  1  0
 19 20  1  0
 20 21  2  0
 20 22  1  0
 22 23  1  0
 23 24  1  0
 16 25  2  0
 10 26  1  0
 26 27  1  0
 27 28  1  0
 28 29  1  0
  7 30  2  0
 30  3  1  0
 25 12  1  0
 29 27  1  0
 21 17  1  0
 24 19  1  0
M  END
>  <shape_align_shape_tanimoto>  (2) 
0.57398560687720412

>  <shape_align_color_tanimoto>  (2) 
0.11318174156915478

>  <metric>  (2) 
color

>  <metric_score>  (2) 
0.113

>  <template_pid>  (2) 
6DAR

>  <template_shape_score>  (2) 
0.574

>  <template_color_score>  (2) 
0.113

>  <template_combo_score>  (2) 
0.344

$$$$
6DAR_combo_pose
     RDKit          3D

 30 34  0  0  0  0  0  0  0  0999 V2000
    0.4001   -3.1289   20.0141 C   0  0  0  0  0  0  0  0  0  0  0  0
    0.3291   -1.9338   19.2935 O   0  0  0  0  0  0  0  0  0  0  0  0
    1.3848   -1.0573   19.1168 C   0  0  0  0  0  0  0  0  0  0  0  0
    2.6541   -1.2970   19.6592 C   0  0  0  0  0  0  0  0  0  0  0  0
    3.6448   -0.3674   19.4300 C   0  0  0  0  0  0  0  0  0  0  0  0
    3.4306    0.7847   18.6875 C   0  0  0  0  0  0  0  0  0  0  0  0
    2.1775    1.0302   18.1462 C   0  0  0  0  0  0  0  0  0  0  0  0
    1.9623    2.2432   17.3820 C   0  0  0  0  0  0  0  0  0  0  0  0
    2.0001    3.3322   18.0515 O   0  0  0  0  0  0  0  0  0  0  0  0
    1.7160    2.2643   15.9551 N   0  0  0  0  0  0  0  0  0  0  0  0
    1.7162    1.0116   15.2708 C   0  0  0  0  0  0  0  0  0  0  0  0
    2.8709    0.6274   14.4708 C   0  0  0  0  0  0  0  0  0  0  0  0
    2.7920    0.6220   13.0652 C   0  0  0  0  0  0  0  0  0  0  0  0
    3.8966    0.2798   12.3156 C   0  0  0  0  0  0  0  0  0  0  0  0
    5.1054   -0.0657   12.8694 C   0  0  0  0  0  0  0  0  0  0  0  0
    5.1964   -0.0626   14.2454 C   0  0  0  0  0  0  0  0  0  0  0  0
    6.4237   -0.3919   14.9554 C   0  0  0  0  0  0  0  0  0  0  0  0
    7.6291   -0.7374   14.3795 C   0  0  0  0  0  0  0  0  0  0  0  0
    8.4874   -0.9495   15.3927 N   0  0  0  0  0  0  0  0  0  0  0  0
    7.8789   -0.7544   16.5717 C   0  0  0  0  0  0  0  0  0  0  0  0
    6.6120   -0.4125   16.2844 N   0  0  0  0  0  0  0  0  0  0  0  0
    8.8136   -0.9790   17.6995 C   0  0  0  0  0  0  0  0  0  0  0  0
    9.8774   -1.8440   17.0544 C   0  0  0  0  0  0  0  0  0  0  0  0
    9.8598   -1.3230   15.6248 C   0  0  0  0  0  0  0  0  0  0  0  0
    4.0871    0.2791   14.9900 C   0  0  0  0  0  0  0  0  0  0  0  0
    1.4278    3.5738   15.4226 C   0  0  0  0  0  0  0  0  0  0  0  0
    2.5949    4.4350   15.0837 C   0  0  0  0  0  0  0  0  0  0  0  0
    3.6104    4.0940   14.0852 C   0  0  0  0  0  0  0  0  0  0  0  0
    2.6597    5.2137   13.8142 C   0  0  0  0  0  0  0  0  0  0  0  0
    1.1952    0.0917   18.3845 C   0  0  0  0  0  0  0  0  0  0  0  0
  1  2  1  0
  2  3  1  0
  3  4  2  0
  4  5  1  0
  5  6  2  0
  6  7  1  0
  7  8  1  0
  8  9  2  0
  8 10  1  0
 10 11  1  0
 11 12  1  0
 12 13  2  0
 13 14  1  0
 14 15  2  0
 15 16  1  0
 16 17  1  0
 17 18  2  0
 18 19  1  0
 19 20  1  0
 20 21  2  0
 20 22  1  0
 22 23  1  0
 23 24  1  0
 16 25  2  0
 10 26  1  0
 26 27  1  0
 27 28  1  0
 28 29  1  0
  7 30  2  0
 30  3  1  0
 25 12  1  0
 29 27  1  0
 21 17  1  0
 24 19  1  0
M  END
>  <shape_align_shape_tanimoto>  (3) 
0.57398560687720412

>  <shape_align_color_tanimoto>  (3) 
0.11318174156915478

>  <metric>  (3) 
combo

>  <metric_score>  (3) 
0.344

>  <template_pid>  (3) 
6DAR

>  <template_shape_score>  (3) 
0.574

>  <template_color_score>  (3) 
0.113

>  <template_combo_score>  (3) 
0.344

$$$$
