4NUF_shape_pose
     RDKit          3D

127128  0  0  0  0  0  0  0  0999 V2000
   82.8210   89.7367   29.1579 C   0  0  0  0  0  0  0  0  0  0  0  0
   82.2761   88.9524   27.6179 S   0  0  0  0  0  0  0  0  0  0  0  0
   83.0837   89.8042   26.2323 C   0  0  0  0  0  0  0  0  0  0  0  0
   82.6668   89.1974   24.9107 C   0  0  0  0  0  0  0  0  0  0  0  0
   83.0187   87.7527   24.7866 C   0  0  2  0  0  0  0  0  0  0  0  0
   84.4278   87.4509   24.8684 N   0  0  0  0  0  0  0  0  0  0  0  0
   82.3513   87.0336   23.6947 C   0  0  0  0  0  0  0  0  0  0  0  0
   81.1291   87.2844   23.4672 O   0  0  0  0  0  0  0  0  0  0  0  0
   83.0067   86.0707   22.8939 N   0  0  0  0  0  0  0  0  0  0  0  0
   82.2133   85.4162   21.8535 C   0  0  1  0  0  0  0  0  0  0  0  0
   82.9586   84.9769   20.6732 C   0  0  0  0  0  0  0  0  0  0  0  0
   84.0317   84.0136   20.9245 C   0  0  0  0  0  0  0  0  0  0  0  0
   84.8941   83.5132   19.9667 C   0  0  0  0  0  0  0  0  0  0  0  0
   85.7530   82.6815   20.5612 N   0  0  0  0  0  0  0  0  0  0  0  0
   85.4574   82.6318   21.8839 C   0  0  0  0  0  0  0  0  0  0  0  0
   84.4232   83.4412   22.0723 N   0  0  0  0  0  0  0  0  0  0  0  0
   81.5517   84.2368   22.5482 C   0  0  0  0  0  0  0  0  0  0  0  0
   81.8312   84.2329   23.8008 O   0  0  0  0  0  0  0  0  0  0  0  0
   80.7475   83.2992   21.9066 N   0  0  0  0  0  0  0  0  0  0  0  0
   80.0728   82.1609   22.4067 C   0  0  1  0  0  0  0  0  0  0  0  0
   80.0606   82.0254   23.9253 C   0  0  0  0  0  0  0  0  0  0  0  0
   81.3677   81.6500   24.5680 C   0  0  0  0  0  0  0  0  0  0  0  0
   81.2951   81.8488   26.0858 C   0  0  0  0  0  0  0  0  0  0  0  0
   82.3942   81.3591   26.8055 N   0  0  0  0  0  0  0  0  0  0  0  0
   83.7697   81.6054   26.7466 C   0  0  0  0  0  0  0  0  0  0  0  0
   84.6660   80.9399   27.6654 N   0  0  0  0  0  0  0  0  0  0  0  0
   84.2254   82.4309   25.9016 N   0  0  0  0  0  0  0  0  0  0  0  0
   78.7290   82.0084   21.8905 C   0  0  0  0  0  0  0  0  0  0  0  0
   78.1716   80.8620   22.0748 O   0  0  0  0  0  0  0  0  0  0  0  0
   77.9722   83.0358   21.1985 N   0  0  0  0  0  0  0  0  0  0  0  0
   76.6359   82.6268   20.7924 C   0  0  2  0  0  0  0  0  0  0  0  0
   76.2272   83.1460   19.4695 C   0  0  0  0  0  0  0  0  0  0  0  0
   75.2069   82.7265   18.8453 O   0  0  0  0  0  0  0  0  0  0  0  0
   76.9513   84.1808   18.7707 N   0  0  0  0  0  0  0  0  0  0  0  0
   76.3805   84.5666   17.4894 C   0  0  1  0  0  0  0  0  0  0  0  0
   75.3815   85.7309   17.7922 C   0  0  0  0  0  0  0  0  0  0  0  0
   74.4364   85.2325   18.6798 O   0  0  0  0  0  0  0  0  0  0  0  0
   77.3417   85.1400   16.5315 C   0  0  0  0  0  0  0  0  0  0  0  0
   78.5467   85.2572   16.9104 O   0  0  0  0  0  0  0  0  0  0  0  0
   76.8784   85.5350   15.2466 N   0  0  0  0  0  0  0  0  0  0  0  0
   77.8399   86.1353   14.3023 C   0  0  1  0  0  0  0  0  0  0  0  0
   77.8140   85.2934   13.0218 C   0  0  0  0  0  0  0  0  0  0  0  0
   77.3050   87.4782   13.8716 C   0  0  0  0  0  0  0  0  0  0  0  0
   76.0996   87.7367   14.1589 O   0  0  0  0  0  0  0  0  0  0  0  0
   78.0812   88.4327   13.1897 N   0  0  0  0  0  0  0  0  0  0  0  0
   77.5215   89.7156   12.8069 C   0  0  1  0  0  0  0  0  0  0  0  0
   77.2468   90.5155   14.1024 C   0  0  0  0  0  0  0  0  0  0  0  0
   78.3488   90.4857   11.8967 C   0  0  0  0  0  0  0  0  0  0  0  0
   79.3883   90.0806   11.3214 O   0  0  0  0  0  0  0  0  0  0  0  0
   77.9403   91.8609   11.6389 N   0  0  0  0  0  0  0  0  0  0  0  0
   78.7577   92.6664   10.7853 C   0  0  1  0  0  0  0  0  0  0  0  0
   77.9983   93.4985    9.8068 C   0  0  0  0  0  0  0  0  0  0  0  0
   77.0764   94.5341   10.3220 C   0  0  0  0  0  0  0  0  0  0  0  0
   75.9178   94.1023   11.1659 C   0  0  0  0  0  0  0  0  0  0  0  0
   76.4867   95.2770    9.1060 C   0  0  0  0  0  0  0  0  0  0  0  0
   79.5889   93.6004   11.6667 C   0  0  0  0  0  0  0  0  0  0  0  0
   79.4270   93.4490   12.9142 O   0  0  0  0  0  0  0  0  0  0  0  0
   80.4625   94.5527   11.1197 N   0  0  0  0  0  0  0  0  0  0  0  0
   81.2757   95.4867   11.8306 C   0  0  1  0  0  0  0  0  0  0  0  0
   80.3879   96.2475   12.8109 C   0  0  0  0  0  0  0  0  0  0  0  0
   81.0859   97.2722   13.6281 C   0  0  0  0  0  0  0  0  0  0  0  0
   80.0273   97.8906   14.5158 C   0  0  0  0  0  0  0  0  0  0  0  0
   78.8315   97.5012   14.4768 O   0  0  0  0  0  0  0  0  0  0  0  0
   80.4778   98.9014   15.3577 O   0  0  0  0  0  0  0  0  0  0  0  0
   82.4841   94.9444   12.4604 C   0  0  0  0  0  0  0  0  0  0  0  0
   83.2904   95.7867   12.9718 O   0  0  0  0  0  0  0  0  0  0  0  0
   82.8501   93.5858   12.5653 N   0  0  0  0  0  0  0  0  0  0  0  0
   84.0741   93.2446   13.1996 C   0  0  1  0  0  0  0  0  0  0  0  0
   85.2982   93.9857   12.7555 C   0  0  0  0  0  0  0  0  0  0  0  0
   85.5824   93.7983   11.2997 C   0  0  0  0  0  0  0  0  0  0  0  0
   85.8523   92.4130   10.8950 C   0  0  0  0  0  0  0  0  0  0  0  0
   85.9206   92.2000    9.6355 O   0  0  0  0  0  0  0  0  0  0  0  0
   86.0350   91.3363   11.7093 O   0  0  0  0  0  0  0  0  0  0  0  0
   84.0348   93.1258   14.6778 C   0  0  0  0  0  0  0  0  0  0  0  0
   85.2365   93.0613   15.1796 O   0  0  0  0  0  0  0  0  0  0  0  0
   82.8855   93.0852   15.4648 N   0  0  0  0  0  0  0  0  0  0  0  0
   82.6246   93.0029   16.8422 C   0  0  1  0  0  0  0  0  0  0  0  0
   81.6338   91.9726   17.2502 C   0  0  0  0  0  0  0  0  0  0  0  0
   83.8011   92.9278   17.7296 C   0  0  0  0  0  0  0  0  0  0  0  0
   84.9560   93.3070   17.4631 O   0  0  0  0  0  0  0  0  0  0  0  0
   83.7002   92.3547   19.0763 N   0  0  0  0  0  0  0  0  0  0  0  0
   85.0219   92.4159   19.7561 C   0  0  1  0  0  0  0  0  0  0  0  0
   84.8401   91.9844   21.1593 C   0  0  0  0  0  0  0  0  0  0  0  0
   83.8698   92.8765   21.8801 C   0  0  0  0  0  0  0  0  0  0  0  0
   83.5281   92.7221   23.2432 N   0  0  0  0  0  0  0  0  0  0  0  0
   83.3668   93.8030   21.1603 O   0  0  0  0  0  0  0  0  0  0  0  0
   85.9051   91.3727   19.0518 C   0  0  0  0  0  0  0  0  0  0  0  0
   87.1471   91.5041   19.1475 O   0  0  0  0  0  0  0  0  0  0  0  0
   85.2594   90.3477   18.3402 N   0  0  0  0  0  0  0  0  0  0  0  0
   85.9378   89.3277   17.5490 C   0  0  1  0  0  0  0  0  0  0  0  0
   86.2362   88.1118   18.4382 C   0  0  0  0  0  0  0  0  0  0  0  0
   87.0754   88.4327   19.6302 C   0  0  0  0  0  0  0  0  0  0  0  0
   87.3669   87.1665   20.4060 C   0  0  0  0  0  0  0  0  0  0  0  0
   88.1397   86.1953   19.5845 C   0  0  0  0  0  0  0  0  0  0  0  0
   88.4505   84.9734   20.3652 N   0  0  0  0  0  0  0  0  0  0  0  0
   84.9499   88.8881   16.4834 C   0  0  0  0  0  0  0  0  0  0  0  0
   85.2670   88.8513   15.2734 O   0  0  0  0  0  0  0  0  0  0  0  0
   83.6835   88.5406   16.9701 N   0  0  0  0  0  0  0  0  0  0  0  0
   82.4989   88.1626   16.2554 C   0  0  2  0  0  0  0  0  0  0  0  0
   81.3747   88.1939   17.2187 C   0  0  0  0  0  0  0  0  0  0  0  0
   81.5017   87.3967   18.2171 O   0  0  0  0  0  0  0  0  0  0  0  0
   80.2292   88.9707   17.1749 N   0  0  0  0  0  0  0  0  0  0  0  0
   79.2413   88.8124   18.2636 C   0  0  1  0  0  0  0  0  0  0  0  0
   79.9126   89.3937   19.5377 C   0  0  0  0  0  0  0  0  0  0  0  0
   78.9557   89.2554   20.6528 C   0  0  0  0  0  0  0  0  0  0  0  0
   78.8458   88.0497   21.2998 C   0  0  0  0  0  0  0  0  0  0  0  0
   78.0208   87.8393   22.3900 C   0  0  0  0  0  0  0  0  0  0  0  0
   77.2868   88.9273   22.8174 C   0  0  0  0  0  0  0  0  0  0  0  0
   77.3923   90.1491   22.1744 C   0  0  0  0  0  0  0  0  0  0  0  0
   78.2197   90.3494   21.0833 C   0  0  0  0  0  0  0  0  0  0  0  0
   78.0771   89.6380   18.0024 C   0  0  0  0  0  0  0  0  0  0  0  0
   78.2196   90.5622   17.1217 O   0  0  0  0  0  0  0  0  0  0  0  0
   76.8030   89.5497   18.5936 N   0  0  0  0  0  0  0  0  0  0  0  0
   75.8102   90.5341   18.1480 C   0  0  1  0  0  0  0  0  0  0  0  0
   74.7012   89.8606   17.3556 C   0  0  0  0  0  0  0  0  0  0  0  0
   73.7074   90.7519   16.7462 C   0  0  0  0  0  0  0  0  0  0  0  0
   72.9000   91.6588   17.6150 C   0  0  0  0  0  0  0  0  0  0  0  0
   72.6669   89.8430   16.0456 C   0  0  0  0  0  0  0  0  0  0  0  0
   75.1601   91.0712   19.3964 C   0  0  0  0  0  0  0  0  0  0  0  0
   75.6587   92.0607   20.0197 O   0  0  0  0  0  0  0  0  0  0  0  0
   74.0075   90.5300   19.9349 O   0  0  0  0  0  0  0  0  0  0  0  0
   82.6146   86.7030   15.7750 C   0  0  0  0  0  0  0  0  0  0  0  0
   82.8113   85.7259   16.8718 C   0  0  0  0  0  0  0  0  0  0  0  0
   83.5349   86.5570   14.6032 C   0  0  0  0  0  0  0  0  0  0  0  0
   75.6211   83.0775   21.8427 C   0  0  0  0  0  0  0  0  0  0  0  0
   74.2439   82.6156   21.4120 C   0  0  0  0  0  0  0  0  0  0  0  0
   75.9399   82.4151   23.1479 C   0  0  0  0  0  0  0  0  0  0  0  0
  1  2  1  0
  2  3  1  0
  3  4  1  0
  4  5  1  0
  5  6  1  6
  5  7  1  0
  7  8  2  0
  7  9  1  0
  9 10  1  0
 10 11  1  6
 11 12  1  0
 12 13  2  0
 13 14  1  0
 14 15  1  0
 15 16  2  0
 10 17  1  0
 17 18  2  0
 17 19  1  0
 19 20  1  0
 20 21  1  1
 21 22  1  0
 22 23  1  0
 23 24  1  0
 24 25  1  0
 25 26  1  0
 25 27  2  0
 20 28  1  0
 28 29  2  0
 28 30  1  0
 31 30  1  1
 31 32  1  0
 32 33  2  0
 32 34  1  0
 34 35  1  0
 35 36  1  1
 36 37  1  0
 35 38  1  0
 38 39  2  0
 38 40  1  0
 40 41  1  0
 41 42  1  6
 41 43  1  0
 43 44  2  0
 43 45  1  0
 45 46  1  0
 46 47  1  1
 46 48  1  0
 48 49  2  0
 48 50  1  0
 50 51  1  0
 51 52  1  6
 52 53  1  0
 53 54  1  0
 53 55  1  0
 51 56  1  0
 56 57  2  0
 56 58  1  0
 58 59  1  0
 59 60  1  1
 60 61  1  0
 61 62  1  0
 62 63  2  0
 62 64  1  0
 59 65  1  0
 65 66  2  0
 65 67  1  0
 67 68  1  0
 68 69  1  1
 69 70  1  0
 70 71  1  0
 71 72  2  0
 71 73  1  0
 68 74  1  0
 74 75  2  0
 74 76  1  0
 76 77  1  0
 77 78  1  6
 77 79  1  0
 79 80  2  0
 79 81  1  0
 81 82  1  0
 82 83  1  1
 83 84  1  0
 84 85  1  0
 84 86  2  0
 82 87  1  0
 87 88  2  0
 87 89  1  0
 89 90  1  0
 90 91  1  1
 91 92  1  0
 92 93  1  0
 93 94  1  0
 94 95  1  0
 90 96  1  0
 96 97  2  0
 96 98  1  0
 99 98  1  1
 99100  1  0
100101  2  0
100102  1  0
102103  1  0
103104  1  1
104105  1  0
105106  2  0
106107  1  0
107108  2  0
108109  1  0
109110  2  0
103111  1  0
111112  2  0
111113  1  0
113114  1  0
114115  1  6
115116  1  0
116117  1  0
116118  1  0
114119  1  0
119120  2  0
119121  1  0
 99122  1  0
122123  1  0
122124  1  0
 31125  1  0
125126  1  0
125127  1  0
 16 12  1  0
110105  1  0
M  CHG  6   6   1  27   1  64  -1  73  -1  95   1 121  -1
M  END
>  <shape_align_shape_tanimoto>  (1) 
0.088667079738253385

>  <shape_align_color_tanimoto>  (1) 
0.022505385400702536

>  <metric>  (1) 
shape

>  <metric_score>  (1) 
0.089

>  <template_pid>  (1) 
4NUF

>  <template_shape_score>  (1) 
0.089

>  <template_color_score>  (1) 
0.023

>  <template_combo_score>  (1) 
0.056

$$$$
4NUF_color_pose
     RDKit          3D

127128  0  0  0  0  0  0  0  0999 V2000
   85.1146   94.6326   16.4171 C   0  0  0  0  0  0  0  0  0  0  0  0
   85.6090   93.7813   14.9103 S   0  0  0  0  0  0  0  0  0  0  0  0
   85.7774   92.0001   15.1568 C   0  0  0  0  0  0  0  0  0  0  0  0
   84.4624   91.2956   15.4219 C   0  0  0  0  0  0  0  0  0  0  0  0
   83.4994   91.4488   14.2986 C   0  0  2  0  0  0  0  0  0  0  0  0
   83.0998   92.7966   13.9878 N   0  0  0  0  0  0  0  0  0  0  0  0
   82.2873   90.6313   14.5365 C   0  0  0  0  0  0  0  0  0  0  0  0
   81.1687   91.1674   14.3097 O   0  0  0  0  0  0  0  0  0  0  0  0
   82.3126   89.3148   14.9862 N   0  0  0  0  0  0  0  0  0  0  0  0
   81.1249   88.4665   15.1885 C   0  0  1  0  0  0  0  0  0  0  0  0
   81.1527   87.3288   14.2328 C   0  0  0  0  0  0  0  0  0  0  0  0
   79.9985   86.4384   14.3920 C   0  0  0  0  0  0  0  0  0  0  0  0
   79.9244   85.2571   15.1429 C   0  0  0  0  0  0  0  0  0  0  0  0
   78.7009   84.7050   14.9965 N   0  0  0  0  0  0  0  0  0  0  0  0
   78.0152   85.5140   14.1747 C   0  0  0  0  0  0  0  0  0  0  0  0
   78.7733   86.5483   13.8068 N   0  0  0  0  0  0  0  0  0  0  0  0
   80.8429   88.1281   16.5571 C   0  0  0  0  0  0  0  0  0  0  0  0
   79.9442   87.2640   16.8200 O   0  0  0  0  0  0  0  0  0  0  0  0
   81.4744   88.6748   17.7306 N   0  0  0  0  0  0  0  0  0  0  0  0
   80.9765   88.1044   18.9948 C   0  0  1  0  0  0  0  0  0  0  0  0
   82.0493   88.2590   20.0191 C   0  0  0  0  0  0  0  0  0  0  0  0
   82.3745   89.7204   20.2831 C   0  0  0  0  0  0  0  0  0  0  0  0
   83.5265   89.7765   21.2485 C   0  0  0  0  0  0  0  0  0  0  0  0
   84.7293   89.1714   20.6557 N   0  0  0  0  0  0  0  0  0  0  0  0
   85.4394   89.7687   19.5957 C   0  0  0  0  0  0  0  0  0  0  0  0
   86.5821   89.0910   19.0859 N   0  0  0  0  0  0  0  0  0  0  0  0
   85.1215   90.9046   19.0430 N   0  0  0  0  0  0  0  0  0  0  0  0
   79.7846   88.9719   19.3072 C   0  0  0  0  0  0  0  0  0  0  0  0
   79.7525   90.0601   18.6666 O   0  0  0  0  0  0  0  0  0  0  0  0
   78.7889   88.5811   20.2441 N   0  0  0  0  0  0  0  0  0  0  0  0
   77.6267   89.3875   20.5676 C   0  0  2  0  0  0  0  0  0  0  0  0
   76.9640   90.0125   19.4163 C   0  0  0  0  0  0  0  0  0  0  0  0
   76.1688   91.0018   19.5031 O   0  0  0  0  0  0  0  0  0  0  0  0
   77.1511   89.5539   18.0553 N   0  0  0  0  0  0  0  0  0  0  0  0
   76.4775   90.2563   16.9989 C   0  0  1  0  0  0  0  0  0  0  0  0
   77.4809   90.8794   16.0349 C   0  0  0  0  0  0  0  0  0  0  0  0
   78.3231   91.7903   16.6482 O   0  0  0  0  0  0  0  0  0  0  0  0
   75.6399   89.3498   16.1825 C   0  0  0  0  0  0  0  0  0  0  0  0
   75.5261   88.1112   16.4237 O   0  0  0  0  0  0  0  0  0  0  0  0
   74.9492   89.9565   15.0733 N   0  0  0  0  0  0  0  0  0  0  0  0
   74.1037   89.1358   14.1851 C   0  0  1  0  0  0  0  0  0  0  0  0
   72.8143   89.8919   14.0087 C   0  0  0  0  0  0  0  0  0  0  0  0
   74.7797   89.1251   12.8146 C   0  0  0  0  0  0  0  0  0  0  0  0
   75.7539   89.9139   12.7479 O   0  0  0  0  0  0  0  0  0  0  0  0
   74.3135   88.2904   11.7900 N   0  0  0  0  0  0  0  0  0  0  0  0
   74.9367   88.2196   10.4452 C   0  0  1  0  0  0  0  0  0  0  0  0
   75.6833   89.5574   10.2383 C   0  0  0  0  0  0  0  0  0  0  0  0
   75.8590   87.0739   10.5607 C   0  0  0  0  0  0  0  0  0  0  0  0
   75.8368   86.4898   11.7062 O   0  0  0  0  0  0  0  0  0  0  0  0
   76.7381   86.5787    9.5647 N   0  0  0  0  0  0  0  0  0  0  0  0
   77.5596   85.4520    9.9223 C   0  0  1  0  0  0  0  0  0  0  0  0
   77.1821   84.1371    9.3482 C   0  0  0  0  0  0  0  0  0  0  0  0
   77.1537   83.9837    7.8780 C   0  0  0  0  0  0  0  0  0  0  0  0
   76.1408   84.9172    7.2602 C   0  0  0  0  0  0  0  0  0  0  0  0
   76.6553   82.5495    7.6005 C   0  0  0  0  0  0  0  0  0  0  0  0
   79.0221   85.7126    9.8476 C   0  0  0  0  0  0  0  0  0  0  0  0
   79.7511   84.7968   10.3516 O   0  0  0  0  0  0  0  0  0  0  0  0
   79.6145   86.8619    9.2850 N   0  0  0  0  0  0  0  0  0  0  0  0
   81.0809   86.9442    9.3691 C   0  0  1  0  0  0  0  0  0  0  0  0
   81.6835   86.9779    7.9982 C   0  0  0  0  0  0  0  0  0  0  0  0
   83.1773   87.0555    8.0929 C   0  0  0  0  0  0  0  0  0  0  0  0
   83.7529   85.8786    8.7340 C   0  0  0  0  0  0  0  0  0  0  0  0
   83.1305   84.8627    9.1212 O   0  0  0  0  0  0  0  0  0  0  0  0
   85.1408   85.8590    8.9448 O   0  0  0  0  0  0  0  0  0  0  0  0
   81.4333   88.2228   10.1135 C   0  0  0  0  0  0  0  0  0  0  0  0
   82.4429   88.3165   10.8353 O   0  0  0  0  0  0  0  0  0  0  0  0
   80.5893   89.3055    9.9683 N   0  0  0  0  0  0  0  0  0  0  0  0
   80.6789   90.6116   10.6178 C   0  0  1  0  0  0  0  0  0  0  0  0
   82.1275   91.1059   10.2246 C   0  0  0  0  0  0  0  0  0  0  0  0
   82.2951   91.2134    8.7563 C   0  0  0  0  0  0  0  0  0  0  0  0
   83.7098   91.6826    8.5169 C   0  0  0  0  0  0  0  0  0  0  0  0
   84.6956   90.9237    8.5779 O   0  0  0  0  0  0  0  0  0  0  0  0
   83.9354   93.0308    8.2075 O   0  0  0  0  0  0  0  0  0  0  0  0
   79.8127   91.5863   10.0043 C   0  0  0  0  0  0  0  0  0  0  0  0
   79.4604   91.3547    8.7817 O   0  0  0  0  0  0  0  0  0  0  0  0
   79.2818   92.7742   10.5535 N   0  0  0  0  0  0  0  0  0  0  0  0
   78.4695   93.5630    9.6573 C   0  0  1  0  0  0  0  0  0  0  0  0
   77.1164   92.7710    9.4630 C   0  0  0  0  0  0  0  0  0  0  0  0
   78.0108   94.8556   10.1431 C   0  0  0  0  0  0  0  0  0  0  0  0
   77.7947   95.7534    9.2681 O   0  0  0  0  0  0  0  0  0  0  0  0
   77.7880   95.1335   11.5127 N   0  0  0  0  0  0  0  0  0  0  0  0
   77.3027   96.4359   11.9157 C   0  0  1  0  0  0  0  0  0  0  0  0
   75.8891   96.6383   11.2861 C   0  0  0  0  0  0  0  0  0  0  0  0
   75.4351   97.9782   11.7347 C   0  0  0  0  0  0  0  0  0  0  0  0
   76.0938   99.1226   11.1569 N   0  0  0  0  0  0  0  0  0  0  0  0
   74.5037   98.1307   12.5947 O   0  0  0  0  0  0  0  0  0  0  0  0
   77.2114   96.6752   13.3443 C   0  0  0  0  0  0  0  0  0  0  0  0
   76.7367   97.8018   13.7210 O   0  0  0  0  0  0  0  0  0  0  0  0
   77.5824   95.7884   14.3902 N   0  0  0  0  0  0  0  0  0  0  0  0
   77.3296   96.2386   15.7382 C   0  0  1  0  0  0  0  0  0  0  0  0
   76.7474   95.1522   16.6032 C   0  0  0  0  0  0  0  0  0  0  0  0
   75.4450   94.6777   15.9974 C   0  0  0  0  0  0  0  0  0  0  0  0
   74.4024   95.7391   15.8638 C   0  0  0  0  0  0  0  0  0  0  0  0
   73.1017   95.2281   15.2565 C   0  0  0  0  0  0  0  0  0  0  0  0
   73.2902   94.6954   13.9351 N   0  0  0  0  0  0  0  0  0  0  0  0
   78.5322   96.8547   16.3596 C   0  0  0  0  0  0  0  0  0  0  0  0
   79.6685   96.8466   15.8243 O   0  0  0  0  0  0  0  0  0  0  0  0
   78.2797   97.4723   17.6317 N   0  0  0  0  0  0  0  0  0  0  0  0
   79.2595   98.1570   18.4197 C   0  0  2  0  0  0  0  0  0  0  0  0
   79.0945   98.0774   19.8658 C   0  0  0  0  0  0  0  0  0  0  0  0
   79.8526   98.8409   20.5692 O   0  0  0  0  0  0  0  0  0  0  0  0
   78.1794   97.2462   20.5738 N   0  0  0  0  0  0  0  0  0  0  0  0
   78.1598   97.3771   22.0079 C   0  0  1  0  0  0  0  0  0  0  0  0
   76.7190   97.5741   22.4598 C   0  0  0  0  0  0  0  0  0  0  0  0
   75.8422   96.4362   22.0789 C   0  0  0  0  0  0  0  0  0  0  0  0
   75.6848   95.3470   22.9452 C   0  0  0  0  0  0  0  0  0  0  0  0
   74.8636   94.2787   22.6082 C   0  0  0  0  0  0  0  0  0  0  0  0
   74.1814   94.2601   21.4129 C   0  0  0  0  0  0  0  0  0  0  0  0
   74.3369   95.3220   20.5715 C   0  0  0  0  0  0  0  0  0  0  0  0
   75.1455   96.4122   20.8626 C   0  0  0  0  0  0  0  0  0  0  0  0
   78.8907   96.3847   22.7912 C   0  0  0  0  0  0  0  0  0  0  0  0
   78.9349   96.6295   24.0639 O   0  0  0  0  0  0  0  0  0  0  0  0
   79.5445   95.2198   22.3692 N   0  0  0  0  0  0  0  0  0  0  0  0
   80.2546   94.3632   23.3510 C   0  0  1  0  0  0  0  0  0  0  0  0
   79.3821   93.2998   23.9152 C   0  0  0  0  0  0  0  0  0  0  0  0
   79.9868   92.3964   24.9266 C   0  0  0  0  0  0  0  0  0  0  0  0
   80.5048   93.1438   26.1480 C   0  0  0  0  0  0  0  0  0  0  0  0
   80.9259   91.3456   24.4256 C   0  0  0  0  0  0  0  0  0  0  0  0
   81.5347   93.9238   22.7651 C   0  0  0  0  0  0  0  0  0  0  0  0
   81.6924   93.8503   21.5197 O   0  0  0  0  0  0  0  0  0  0  0  0
   82.6214   93.5759   23.5474 O   0  0  0  0  0  0  0  0  0  0  0  0
   79.1315   99.6372   17.9509 C   0  0  0  0  0  0  0  0  0  0  0  0
   77.7712  100.1842   18.1928 C   0  0  0  0  0  0  0  0  0  0  0  0
   80.1952  100.4392   18.6217 C   0  0  0  0  0  0  0  0  0  0  0  0
   77.9228   90.3988   21.6263 C   0  0  0  0  0  0  0  0  0  0  0  0
   76.6783   91.1939   21.9347 C   0  0  0  0  0  0  0  0  0  0  0  0
   78.3635   89.6659   22.8871 C   0  0  0  0  0  0  0  0  0  0  0  0
  1  2  1  0
  2  3  1  0
  3  4  1  0
  4  5  1  0
  5  6  1  1
  5  7  1  0
  7  8  2  0
  7  9  1  0
  9 10  1  0
 10 11  1  6
 11 12  1  0
 12 13  2  0
 13 14  1  0
 14 15  1  0
 15 16  2  0
 10 17  1  0
 17 18  2  0
 17 19  1  0
 19 20  1  0
 20 21  1  1
 21 22  1  0
 22 23  1  0
 23 24  1  0
 24 25  1  0
 25 26  1  0
 25 27  2  0
 20 28  1  0
 28 29  2  0
 28 30  1  0
 31 30  1  6
 31 32  1  0
 32 33  2  0
 32 34  1  0
 34 35  1  0
 35 36  1  6
 36 37  1  0
 35 38  1  0
 38 39  2  0
 38 40  1  0
 40 41  1  0
 41 42  1  6
 41 43  1  0
 43 44  2  0
 43 45  1  0
 45 46  1  0
 46 47  1  1
 46 48  1  0
 48 49  2  0
 48 50  1  0
 50 51  1  0
 51 52  1  6
 52 53  1  0
 53 54  1  0
 53 55  1  0
 51 56  1  0
 56 57  2  0
 56 58  1  0
 58 59  1  0
 59 60  1  6
 60 61  1  0
 61 62  1  0
 62 63  2  0
 62 64  1  0
 59 65  1  0
 65 66  2  0
 65 67  1  0
 67 68  1  0
 68 69  1  6
 69 70  1  0
 70 71  1  0
 71 72  2  0
 71 73  1  0
 68 74  1  0
 74 75  2  0
 74 76  1  0
 76 77  1  0
 77 78  1  1
 77 79  1  0
 79 80  2  0
 79 81  1  0
 81 82  1  0
 82 83  1  6
 83 84  1  0
 84 85  1  0
 84 86  2  0
 82 87  1  0
 87 88  2  0
 87 89  1  0
 89 90  1  0
 90 91  1  1
 91 92  1  0
 92 93  1  0
 93 94  1  0
 94 95  1  0
 90 96  1  0
 96 97  2  0
 96 98  1  0
 99 98  1  6
 99100  1  0
100101  2  0
100102  1  0
102103  1  0
103104  1  1
104105  1  0
105106  2  0
106107  1  0
107108  2  0
108109  1  0
109110  2  0
103111  1  0
111112  2  0
111113  1  0
113114  1  0
114115  1  6
115116  1  0
116117  1  0
116118  1  0
114119  1  0
119120  2  0
119121  1  0
 99122  1  0
122123  1  0
122124  1  0
 31125  1  0
125126  1  0
125127  1  0
 16 12  1  0
110105  1  0
M  CHG  6   6   1  27   1  64  -1  73  -1  95   1 121  -1
M  END
>  <shape_align_shape_tanimoto>  (2) 
0.084198965227654049

>  <shape_align_color_tanimoto>  (2) 
0.049153078138560381

>  <metric>  (2) 
color

>  <metric_score>  (2) 
0.049

>  <template_pid>  (2) 
4NUF

>  <template_shape_score>  (2) 
0.084

>  <template_color_score>  (2) 
0.049

>  <template_combo_score>  (2) 
0.067

$$$$
4NUF_combo_pose
     RDKit          3D

127128  0  0  0  0  0  0  0  0999 V2000
   85.1146   94.6326   16.4171 C   0  0  0  0  0  0  0  0  0  0  0  0
   85.6090   93.7813   14.9103 S   0  0  0  0  0  0  0  0  0  0  0  0
   85.7774   92.0001   15.1568 C   0  0  0  0  0  0  0  0  0  0  0  0
   84.4624   91.2956   15.4219 C   0  0  0  0  0  0  0  0  0  0  0  0
   83.4994   91.4488   14.2986 C   0  0  2  0  0  0  0  0  0  0  0  0
   83.0998   92.7966   13.9878 N   0  0  0  0  0  0  0  0  0  0  0  0
   82.2873   90.6313   14.5365 C   0  0  0  0  0  0  0  0  0  0  0  0
   81.1687   91.1674   14.3097 O   0  0  0  0  0  0  0  0  0  0  0  0
   82.3126   89.3148   14.9862 N   0  0  0  0  0  0  0  0  0  0  0  0
   81.1249   88.4665   15.1885 C   0  0  1  0  0  0  0  0  0  0  0  0
   81.1527   87.3288   14.2328 C   0  0  0  0  0  0  0  0  0  0  0  0
   79.9985   86.4384   14.3920 C   0  0  0  0  0  0  0  0  0  0  0  0
   79.9244   85.2571   15.1429 C   0  0  0  0  0  0  0  0  0  0  0  0
   78.7009   84.7050   14.9965 N   0  0  0  0  0  0  0  0  0  0  0  0
   78.0152   85.5140   14.1747 C   0  0  0  0  0  0  0  0  0  0  0  0
   78.7733   86.5483   13.8068 N   0  0  0  0  0  0  0  0  0  0  0  0
   80.8429   88.1281   16.5571 C   0  0  0  0  0  0  0  0  0  0  0  0
   79.9442   87.2640   16.8200 O   0  0  0  0  0  0  0  0  0  0  0  0
   81.4744   88.6748   17.7306 N   0  0  0  0  0  0  0  0  0  0  0  0
   80.9765   88.1044   18.9948 C   0  0  1  0  0  0  0  0  0  0  0  0
   82.0493   88.2590   20.0191 C   0  0  0  0  0  0  0  0  0  0  0  0
   82.3745   89.7204   20.2831 C   0  0  0  0  0  0  0  0  0  0  0  0
   83.5265   89.7765   21.2485 C   0  0  0  0  0  0  0  0  0  0  0  0
   84.7293   89.1714   20.6557 N   0  0  0  0  0  0  0  0  0  0  0  0
   85.4394   89.7687   19.5957 C   0  0  0  0  0  0  0  0  0  0  0  0
   86.5821   89.0910   19.0859 N   0  0  0  0  0  0  0  0  0  0  0  0
   85.1215   90.9046   19.0430 N   0  0  0  0  0  0  0  0  0  0  0  0
   79.7846   88.9719   19.3072 C   0  0  0  0  0  0  0  0  0  0  0  0
   79.7525   90.0601   18.6666 O   0  0  0  0  0  0  0  0  0  0  0  0
   78.7889   88.5811   20.2441 N   0  0  0  0  0  0  0  0  0  0  0  0
   77.6267   89.3875   20.5676 C   0  0  2  0  0  0  0  0  0  0  0  0
   76.9640   90.0125   19.4163 C   0  0  0  0  0  0  0  0  0  0  0  0
   76.1688   91.0018   19.5031 O   0  0  0  0  0  0  0  0  0  0  0  0
   77.1511   89.5539   18.0553 N   0  0  0  0  0  0  0  0  0  0  0  0
   76.4775   90.2563   16.9989 C   0  0  1  0  0  0  0  0  0  0  0  0
   77.4809   90.8794   16.0349 C   0  0  0  0  0  0  0  0  0  0  0  0
   78.3231   91.7903   16.6482 O   0  0  0  0  0  0  0  0  0  0  0  0
   75.6399   89.3498   16.1825 C   0  0  0  0  0  0  0  0  0  0  0  0
   75.5261   88.1112   16.4237 O   0  0  0  0  0  0  0  0  0  0  0  0
   74.9492   89.9565   15.0733 N   0  0  0  0  0  0  0  0  0  0  0  0
   74.1037   89.1358   14.1851 C   0  0  1  0  0  0  0  0  0  0  0  0
   72.8143   89.8919   14.0087 C   0  0  0  0  0  0  0  0  0  0  0  0
   74.7797   89.1251   12.8146 C   0  0  0  0  0  0  0  0  0  0  0  0
   75.7539   89.9139   12.7479 O   0  0  0  0  0  0  0  0  0  0  0  0
   74.3135   88.2904   11.7900 N   0  0  0  0  0  0  0  0  0  0  0  0
   74.9367   88.2196   10.4452 C   0  0  1  0  0  0  0  0  0  0  0  0
   75.6833   89.5574   10.2383 C   0  0  0  0  0  0  0  0  0  0  0  0
   75.8590   87.0739   10.5607 C   0  0  0  0  0  0  0  0  0  0  0  0
   75.8368   86.4898   11.7062 O   0  0  0  0  0  0  0  0  0  0  0  0
   76.7381   86.5787    9.5647 N   0  0  0  0  0  0  0  0  0  0  0  0
   77.5596   85.4520    9.9223 C   0  0  1  0  0  0  0  0  0  0  0  0
   77.1821   84.1371    9.3482 C   0  0  0  0  0  0  0  0  0  0  0  0
   77.1537   83.9837    7.8780 C   0  0  0  0  0  0  0  0  0  0  0  0
   76.1408   84.9172    7.2602 C   0  0  0  0  0  0  0  0  0  0  0  0
   76.6553   82.5495    7.6005 C   0  0  0  0  0  0  0  0  0  0  0  0
   79.0221   85.7126    9.8476 C   0  0  0  0  0  0  0  0  0  0  0  0
   79.7511   84.7968   10.3516 O   0  0  0  0  0  0  0  0  0  0  0  0
   79.6145   86.8619    9.2850 N   0  0  0  0  0  0  0  0  0  0  0  0
   81.0809   86.9442    9.3691 C   0  0  1  0  0  0  0  0  0  0  0  0
   81.6835   86.9779    7.9982 C   0  0  0  0  0  0  0  0  0  0  0  0
   83.1773   87.0555    8.0929 C   0  0  0  0  0  0  0  0  0  0  0  0
   83.7529   85.8786    8.7340 C   0  0  0  0  0  0  0  0  0  0  0  0
   83.1305   84.8627    9.1212 O   0  0  0  0  0  0  0  0  0  0  0  0
   85.1408   85.8590    8.9448 O   0  0  0  0  0  0  0  0  0  0  0  0
   81.4333   88.2228   10.1135 C   0  0  0  0  0  0  0  0  0  0  0  0
   82.4429   88.3165   10.8353 O   0  0  0  0  0  0  0  0  0  0  0  0
   80.5893   89.3055    9.9683 N   0  0  0  0  0  0  0  0  0  0  0  0
   80.6789   90.6116   10.6178 C   0  0  1  0  0  0  0  0  0  0  0  0
   82.1275   91.1059   10.2246 C   0  0  0  0  0  0  0  0  0  0  0  0
   82.2951   91.2134    8.7563 C   0  0  0  0  0  0  0  0  0  0  0  0
   83.7098   91.6826    8.5169 C   0  0  0  0  0  0  0  0  0  0  0  0
   84.6956   90.9237    8.5779 O   0  0  0  0  0  0  0  0  0  0  0  0
   83.9354   93.0308    8.2075 O   0  0  0  0  0  0  0  0  0  0  0  0
   79.8127   91.5863   10.0043 C   0  0  0  0  0  0  0  0  0  0  0  0
   79.4604   91.3547    8.7817 O   0  0  0  0  0  0  0  0  0  0  0  0
   79.2818   92.7742   10.5535 N   0  0  0  0  0  0  0  0  0  0  0  0
   78.4695   93.5630    9.6573 C   0  0  1  0  0  0  0  0  0  0  0  0
   77.1164   92.7710    9.4630 C   0  0  0  0  0  0  0  0  0  0  0  0
   78.0108   94.8556   10.1431 C   0  0  0  0  0  0  0  0  0  0  0  0
   77.7947   95.7534    9.2681 O   0  0  0  0  0  0  0  0  0  0  0  0
   77.7880   95.1335   11.5127 N   0  0  0  0  0  0  0  0  0  0  0  0
   77.3027   96.4359   11.9157 C   0  0  1  0  0  0  0  0  0  0  0  0
   75.8891   96.6383   11.2861 C   0  0  0  0  0  0  0  0  0  0  0  0
   75.4351   97.9782   11.7347 C   0  0  0  0  0  0  0  0  0  0  0  0
   76.0938   99.1226   11.1569 N   0  0  0  0  0  0  0  0  0  0  0  0
   74.5037   98.1307   12.5947 O   0  0  0  0  0  0  0  0  0  0  0  0
   77.2114   96.6752   13.3443 C   0  0  0  0  0  0  0  0  0  0  0  0
   76.7367   97.8018   13.7210 O   0  0  0  0  0  0  0  0  0  0  0  0
   77.5824   95.7884   14.3902 N   0  0  0  0  0  0  0  0  0  0  0  0
   77.3296   96.2386   15.7382 C   0  0  1  0  0  0  0  0  0  0  0  0
   76.7474   95.1522   16.6032 C   0  0  0  0  0  0  0  0  0  0  0  0
   75.4450   94.6777   15.9974 C   0  0  0  0  0  0  0  0  0  0  0  0
   74.4024   95.7391   15.8638 C   0  0  0  0  0  0  0  0  0  0  0  0
   73.1017   95.2281   15.2565 C   0  0  0  0  0  0  0  0  0  0  0  0
   73.2902   94.6954   13.9351 N   0  0  0  0  0  0  0  0  0  0  0  0
   78.5322   96.8547   16.3596 C   0  0  0  0  0  0  0  0  0  0  0  0
   79.6685   96.8466   15.8243 O   0  0  0  0  0  0  0  0  0  0  0  0
   78.2797   97.4723   17.6317 N   0  0  0  0  0  0  0  0  0  0  0  0
   79.2595   98.1570   18.4197 C   0  0  2  0  0  0  0  0  0  0  0  0
   79.0945   98.0774   19.8658 C   0  0  0  0  0  0  0  0  0  0  0  0
   79.8526   98.8409   20.5692 O   0  0  0  0  0  0  0  0  0  0  0  0
   78.1794   97.2462   20.5738 N   0  0  0  0  0  0  0  0  0  0  0  0
   78.1598   97.3771   22.0079 C   0  0  1  0  0  0  0  0  0  0  0  0
   76.7190   97.5741   22.4598 C   0  0  0  0  0  0  0  0  0  0  0  0
   75.8422   96.4362   22.0789 C   0  0  0  0  0  0  0  0  0  0  0  0
   75.6848   95.3470   22.9452 C   0  0  0  0  0  0  0  0  0  0  0  0
   74.8636   94.2787   22.6082 C   0  0  0  0  0  0  0  0  0  0  0  0
   74.1814   94.2601   21.4129 C   0  0  0  0  0  0  0  0  0  0  0  0
   74.3369   95.3220   20.5715 C   0  0  0  0  0  0  0  0  0  0  0  0
   75.1455   96.4122   20.8626 C   0  0  0  0  0  0  0  0  0  0  0  0
   78.8907   96.3847   22.7912 C   0  0  0  0  0  0  0  0  0  0  0  0
   78.9349   96.6295   24.0639 O   0  0  0  0  0  0  0  0  0  0  0  0
   79.5445   95.2198   22.3692 N   0  0  0  0  0  0  0  0  0  0  0  0
   80.2546   94.3632   23.3510 C   0  0  1  0  0  0  0  0  0  0  0  0
   79.3821   93.2998   23.9152 C   0  0  0  0  0  0  0  0  0  0  0  0
   79.9868   92.3964   24.9266 C   0  0  0  0  0  0  0  0  0  0  0  0
   80.5048   93.1438   26.1480 C   0  0  0  0  0  0  0  0  0  0  0  0
   80.9259   91.3456   24.4256 C   0  0  0  0  0  0  0  0  0  0  0  0
   81.5347   93.9238   22.7651 C   0  0  0  0  0  0  0  0  0  0  0  0
   81.6924   93.8503   21.5197 O   0  0  0  0  0  0  0  0  0  0  0  0
   82.6214   93.5759   23.5474 O   0  0  0  0  0  0  0  0  0  0  0  0
   79.1315   99.6372   17.9509 C   0  0  0  0  0  0  0  0  0  0  0  0
   77.7712  100.1842   18.1928 C   0  0  0  0  0  0  0  0  0  0  0  0
   80.1952  100.4392   18.6217 C   0  0  0  0  0  0  0  0  0  0  0  0
   77.9228   90.3988   21.6263 C   0  0  0  0  0  0  0  0  0  0  0  0
   76.6783   91.1939   21.9347 C   0  0  0  0  0  0  0  0  0  0  0  0
   78.3635   89.6659   22.8871 C   0  0  0  0  0  0  0  0  0  0  0  0
  1  2  1  0
  2  3  1  0
  3  4  1  0
  4  5  1  0
  5  6  1  1
  5  7  1  0
  7  8  2  0
  7  9  1  0
  9 10  1  0
 10 11  1  6
 11 12  1  0
 12 13  2  0
 13 14  1  0
 14 15  1  0
 15 16  2  0
 10 17  1  0
 17 18  2  0
 17 19  1  0
 19 20  1  0
 20 21  1  1
 21 22  1  0
 22 23  1  0
 23 24  1  0
 24 25  1  0
 25 26  1  0
 25 27  2  0
 20 28  1  0
 28 29  2  0
 28 30  1  0
 31 30  1  6
 31 32  1  0
 32 33  2  0
 32 34  1  0
 34 35  1  0
 35 36  1  6
 36 37  1  0
 35 38  1  0
 38 39  2  0
 38 40  1  0
 40 41  1  0
 41 42  1  6
 41 43  1  0
 43 44  2  0
 43 45  1  0
 45 46  1  0
 46 47  1  1
 46 48  1  0
 48 49  2  0
 48 50  1  0
 50 51  1  0
 51 52  1  6
 52 53  1  0
 53 54  1  0
 53 55  1  0
 51 56  1  0
 56 57  2  0
 56 58  1  0
 58 59  1  0
 59 60  1  6
 60 61  1  0
 61 62  1  0
 62 63  2  0
 62 64  1  0
 59 65  1  0
 65 66  2  0
 65 67  1  0
 67 68  1  0
 68 69  1  6
 69 70  1  0
 70 71  1  0
 71 72  2  0
 71 73  1  0
 68 74  1  0
 74 75  2  0
 74 76  1  0
 76 77  1  0
 77 78  1  1
 77 79  1  0
 79 80  2  0
 79 81  1  0
 81 82  1  0
 82 83  1  6
 83 84  1  0
 84 85  1  0
 84 86  2  0
 82 87  1  0
 87 88  2  0
 87 89  1  0
 89 90  1  0
 90 91  1  1
 91 92  1  0
 92 93  1  0
 93 94  1  0
 94 95  1  0
 90 96  1  0
 96 97  2  0
 96 98  1  0
 99 98  1  6
 99100  1  0
100101  2  0
100102  1  0
102103  1  0
103104  1  1
104105  1  0
105106  2  0
106107  1  0
107108  2  0
108109  1  0
109110  2  0
103111  1  0
111112  2  0
111113  1  0
113114  1  0
114115  1  6
115116  1  0
116117  1  0
116118  1  0
114119  1  0
119120  2  0
119121  1  0
 99122  1  0
122123  1  0
122124  1  0
 31125  1  0
125126  1  0
125127  1  0
 16 12  1  0
110105  1  0
M  CHG  6   6   1  27   1  64  -1  73  -1  95   1 121  -1
M  END
>  <shape_align_shape_tanimoto>  (3) 
0.084198965227654049

>  <shape_align_color_tanimoto>  (3) 
0.049153078138560381

>  <metric>  (3) 
combo

>  <metric_score>  (3) 
0.067

>  <template_pid>  (3) 
4NUF

>  <template_shape_score>  (3) 
0.084

>  <template_color_score>  (3) 
0.049

>  <template_combo_score>  (3) 
0.067

$$$$
