3N3L_shape_pose
     RDKit          3D

 15 16  0  0  0  0  0  0  0  0999 V2000
   13.7457  134.2075   -3.7108 C   0  0  0  0  0  0  0  0  0  0  0  0
   14.9576  134.9005   -3.8330 O   0  0  0  0  0  0  0  0  0  0  0  0
   15.8826  134.9534   -2.7989 C   0  0  0  0  0  0  0  0  0  0  0  0
   15.6651  134.3269   -1.5941 C   0  0  0  0  0  0  0  0  0  0  0  0
   16.5921  134.3849   -0.5669 C   0  0  0  0  0  0  0  0  0  0  0  0
   17.7670  135.1005   -0.7790 C   0  0  0  0  0  0  0  0  0  0  0  0
   18.8570  135.3372    0.0296 C   0  0  0  0  0  0  0  0  0  0  0  0
   19.1044  134.8598    1.4328 C   0  0  0  0  0  0  0  0  0  0  0  0
   19.5453  133.4450    1.4753 C   0  0  0  0  0  0  0  0  0  0  0  0
   19.5429  132.8311    2.5907 O   0  0  0  0  0  0  0  0  0  0  0  0
   19.9565  132.7899    0.3255 O   0  0  0  0  0  0  0  0  0  0  0  0
   19.7256  136.1114   -0.7016 C   0  0  0  0  0  0  0  0  0  0  0  0
   19.1874  136.3218   -1.8704 O   0  0  0  0  0  0  0  0  0  0  0  0
   18.0260  135.7464   -1.9743 C   0  0  0  0  0  0  0  0  0  0  0  0
   17.0522  135.6481   -2.9670 C   0  0  0  0  0  0  0  0  0  0  0  0
  1  2  1  0
  2  3  1  0
  3  4  2  0
  4  5  1  0
  5  6  2  0
  6  7  1  0
  7  8  1  0
  8  9  1  0
  9 10  2  0
  9 11  1  0
  7 12  2  0
 12 13  1  0
 13 14  1  0
 14 15  2  0
 15  3  1  0
 14  6  1  0
M  CHG  1  11  -1
M  END
>  <shape_align_shape_tanimoto>  (1) 
0.50978261660556534

>  <shape_align_color_tanimoto>  (1) 
0.022389735873973242

>  <metric>  (1) 
shape

>  <metric_score>  (1) 
0.510

>  <template_pid>  (1) 
3N3L

>  <template_shape_score>  (1) 
0.510

>  <template_color_score>  (1) 
0.022

>  <template_combo_score>  (1) 
0.266

$$$$
3N3L_color_pose
     RDKit          3D

 15 16  0  0  0  0  0  0  0  0999 V2000
   18.2911  130.8802   -4.9615 C   0  0  0  0  0  0  0  0  0  0  0  0
   17.5897  131.9953   -4.4484 O   0  0  0  0  0  0  0  0  0  0  0  0
   17.9921  132.6520   -3.2812 C   0  0  0  0  0  0  0  0  0  0  0  0
   19.0979  132.2231   -2.5967 C   0  0  0  0  0  0  0  0  0  0  0  0
   19.4311  132.9157   -1.4597 C   0  0  0  0  0  0  0  0  0  0  0  0
   18.7340  133.9890   -0.9823 C   0  0  0  0  0  0  0  0  0  0  0  0
   18.8834  134.8038    0.1146 C   0  0  0  0  0  0  0  0  0  0  0  0
   19.9212  134.7468    1.1641 C   0  0  0  0  0  0  0  0  0  0  0  0
   19.6718  133.5587    2.0605 C   0  0  0  0  0  0  0  0  0  0  0  0
   20.0315  132.4133    1.7078 O   0  0  0  0  0  0  0  0  0  0  0  0
   19.0270  133.7088    3.2962 O   0  0  0  0  0  0  0  0  0  0  0  0
   17.8442  135.6987    0.0254 C   0  0  0  0  0  0  0  0  0  0  0  0
   17.1551  135.4100   -1.0431 O   0  0  0  0  0  0  0  0  0  0  0  0
   17.6291  134.3983   -1.6893 C   0  0  0  0  0  0  0  0  0  0  0  0
   17.2627  133.7251   -2.8391 C   0  0  0  0  0  0  0  0  0  0  0  0
  1  2  1  0
  2  3  1  0
  3  4  2  0
  4  5  1  0
  5  6  2  0
  6  7  1  0
  7  8  1  0
  8  9  1  0
  9 10  2  0
  9 11  1  0
  7 12  2  0
 12 13  1  0
 13 14  1  0
 14 15  2  0
 15  3  1  0
 14  6  1  0
M  CHG  1  11  -1
M  END
>  <shape_align_shape_tanimoto>  (2) 
0.45707404344507563

>  <shape_align_color_tanimoto>  (2) 
0.19018695229824134

>  <metric>  (2) 
color

>  <metric_score>  (2) 
0.190

>  <template_pid>  (2) 
3N3L

>  <template_shape_score>  (2) 
0.457

>  <template_color_score>  (2) 
0.190

>  <template_combo_score>  (2) 
0.324

$$$$
3N3L_combo_pose
     RDKit          3D

 15 16  0  0  0  0  0  0  0  0999 V2000
   14.6966  134.9426   -4.0380 C   0  0  0  0  0  0  0  0  0  0  0  0
   15.4432  135.4667   -2.9756 O   0  0  0  0  0  0  0  0  0  0  0  0
   16.4895  134.8652   -2.3251 C   0  0  0  0  0  0  0  0  0  0  0  0
   17.1097  135.5663   -1.3041 C   0  0  0  0  0  0  0  0  0  0  0  0
   18.1706  135.0636   -0.5840 C   0  0  0  0  0  0  0  0  0  0  0  0
   18.6479  133.8165   -0.8773 C   0  0  0  0  0  0  0  0  0  0  0  0
   19.6629  133.0584   -0.3502 C   0  0  0  0  0  0  0  0  0  0  0  0
   20.6100  133.3336    0.7526 C   0  0  0  0  0  0  0  0  0  0  0  0
   19.8681  133.1672    2.0605 C   0  0  0  0  0  0  0  0  0  0  0  0
   19.0332  134.0747    2.4235 O   0  0  0  0  0  0  0  0  0  0  0  0
   20.0782  132.0353    2.8670 O   0  0  0  0  0  0  0  0  0  0  0  0
   19.6525  131.8763   -1.0677 C   0  0  0  0  0  0  0  0  0  0  0  0
   18.7053  131.9612   -1.9353 O   0  0  0  0  0  0  0  0  0  0  0  0
   18.0431  133.0981   -1.8927 C   0  0  0  0  0  0  0  0  0  0  0  0
   16.9797  133.6149   -2.6062 C   0  0  0  0  0  0  0  0  0  0  0  0
  1  2  1  0
  2  3  1  0
  3  4  2  0
  4  5  1  0
  5  6  2  0
  6  7  1  0
  7  8  1  0
  8  9  1  0
  9 10  2  0
  9 11  1  0
  7 12  2  0
 12 13  1  0
 13 14  1  0
 14 15  2  0
 15  3  1  0
 14  6  1  0
M  CHG  1  11  -1
M  END
>  <shape_align_shape_tanimoto>  (3) 
0.48974686883757806

>  <shape_align_color_tanimoto>  (3) 
0.1800690392992069

>  <metric>  (3) 
combo

>  <metric_score>  (3) 
0.335

>  <template_pid>  (3) 
3N3L

>  <template_shape_score>  (3) 
0.490

>  <template_color_score>  (3) 
0.180

>  <template_combo_score>  (3) 
0.335

$$$$
