6S9W_shape_pose
     RDKit          3D

 42 47  0  0  0  0  0  0  0  0999 V2000
   22.5584  -10.5446    9.5608 C   0  0  0  0  0  0  0  0  0  0  0  0
   22.3810   -9.2452    9.5589 C   0  0  0  0  0  0  0  0  0  0  0  0
   22.6463   -8.4014   10.6677 N   0  0  0  0  0  0  0  0  0  0  0  0
   22.4461   -6.9890   10.6384 C   0  0  0  0  0  0  0  0  0  0  0  0
   22.7944   -6.2208   11.8268 C   0  0  0  0  0  0  0  0  0  0  0  0
   22.3858   -6.6829   13.0863 C   0  0  0  0  0  0  0  0  0  0  0  0
   22.7490   -5.9437   14.1947 C   0  0  0  0  0  0  0  0  0  0  0  0
   23.4912   -4.7792   14.1096 C   0  0  0  0  0  0  0  0  0  0  0  0
   23.8930   -4.3252   12.8711 C   0  0  0  0  0  0  0  0  0  0  0  0
   23.5443   -5.0442   11.7468 C   0  0  0  0  0  0  0  0  0  0  0  0
   21.9923   -6.4224    9.5341 C   0  0  0  0  0  0  0  0  0  0  0  0
   21.7506   -4.9923    9.4024 C   0  0  0  0  0  0  0  0  0  0  0  0
   22.1740   -4.3348    8.2404 C   0  0  0  0  0  0  0  0  0  0  0  0
   21.9510   -2.9834    8.0518 C   0  0  0  0  0  0  0  0  0  0  0  0
   21.2883   -2.2555    9.0418 C   0  0  0  0  0  0  0  0  0  0  0  0
   21.0900   -0.8167    8.7744 C   0  0  0  0  0  0  0  0  0  0  0  0
   19.8931   -0.4857    8.0653 N   0  0  1  0  0  0  0  0  0  0  0  0
   18.9968   -1.5492    7.7819 C   0  0  0  0  0  0  0  0  0  0  0  0
   17.9574   -1.8882    8.7615 C   0  0  0  0  0  0  0  0  0  0  0  0
   17.5226   -0.8871    9.7580 C   0  0  2  0  0  0  0  0  0  0  0  0
   16.0946   -0.5911    9.6728 N   0  0  0  0  0  0  0  0  0  0  0  0
   15.4630    0.4129    9.0605 C   0  0  0  0  0  0  0  0  0  0  0  0
   15.9828    1.3446    8.4118 O   0  0  0  0  0  0  0  0  0  0  0  0
   14.1220    0.3132    9.2236 N   0  0  0  0  0  0  0  0  0  0  0  0
   13.8734   -0.7690    9.9519 C   0  0  0  0  0  0  0  0  0  0  0  0
   12.7379   -1.3975   10.4485 C   0  0  0  0  0  0  0  0  0  0  0  0
   12.8298   -2.5560   11.2034 C   0  0  0  0  0  0  0  0  0  0  0  0
   14.0713   -3.1003   11.4701 C   0  0  0  0  0  0  0  0  0  0  0  0
   14.2567   -4.2840   12.2354 N   0  0  0  0  0  0  0  0  0  0  0  0
   14.2989   -5.5867   11.6593 C   0  0  0  0  0  0  0  0  0  0  0  0
   14.1672   -5.7390   10.3996 O   0  0  0  0  0  0  0  0  0  0  0  0
   14.4975   -6.8065   12.5067 C   0  0  0  0  0  0  0  0  0  0  0  0
   14.4963   -7.9773   11.5705 C   0  0  0  0  0  0  0  0  0  0  0  0
   15.2150   -2.4916   10.9856 C   0  0  0  0  0  0  0  0  0  0  0  0
   15.0969   -1.3327   10.2323 C   0  0  0  0  0  0  0  0  0  0  0  0
   18.3799    0.2963    9.8242 C   0  0  0  0  0  0  0  0  0  0  0  0
   19.2059    0.6614    8.6490 C   0  0  0  0  0  0  0  0  0  0  0  0
   20.8647   -2.8904   10.1934 C   0  0  0  0  0  0  0  0  0  0  0  0
   21.0916   -4.2491   10.3773 C   0  0  0  0  0  0  0  0  0  0  0  0
   21.6990   -7.2142    8.3637 N   0  0  0  0  0  0  0  0  0  0  0  0
   21.8804   -8.6201    8.3403 C   0  0  0  0  0  0  0  0  0  0  0  0
   21.6170   -9.2788    7.3095 O   0  0  0  0  0  0  0  0  0  0  0  0
  1  2  2  0
  2  3  1  0
  3  4  1  0
  4  5  1  0
  5  6  2  0
  6  7  1  0
  7  8  2  0
  8  9  1  0
  9 10  2  0
  4 11  2  0
 11 12  1  0
 12 13  2  0
 13 14  1  0
 14 15  2  0
 15 16  1  0
 17 16  1  1
 17 18  1  0
 18 19  1  0
 19 20  1  0
 20 21  1  6
 21 22  1  0
 22 23  2  0
 22 24  1  0
 24 25  1  0
 25 26  2  0
 26 27  1  0
 27 28  2  0
 28 29  1  0
 29 30  1  0
 30 31  2  0
 30 32  1  0
 32 33  1  0
 28 34  1  0
 34 35  2  0
 20 36  1  0
 36 37  1  0
 15 38  1  0
 38 39  2  0
 11 40  1  0
 40 41  1  0
 41 42  2  0
 41  2  1  0
 10  5  1  0
 39 12  1  0
 37 17  1  0
 35 21  1  0
 35 25  1  0
M  CHG  1  17   1
M  END
>  <shape_align_shape_tanimoto>  (1) 
0.43212022456283589

>  <shape_align_color_tanimoto>  (1) 
0.087175659840520864

>  <metric>  (1) 
shape

>  <metric_score>  (1) 
0.432

>  <template_pid>  (1) 
6S9W

>  <template_shape_score>  (1) 
0.432

>  <template_color_score>  (1) 
0.087

>  <template_combo_score>  (1) 
0.260

$$$$
6S9W_color_pose
     RDKit          3D

 42 47  0  0  0  0  0  0  0  0999 V2000
   27.1386   -8.3871    7.1661 C   0  0  0  0  0  0  0  0  0  0  0  0
   26.2439   -7.4478    7.5021 C   0  0  0  0  0  0  0  0  0  0  0  0
   25.4341   -6.8084    6.5179 N   0  0  0  0  0  0  0  0  0  0  0  0
   24.4790   -5.7977    6.8813 C   0  0  0  0  0  0  0  0  0  0  0  0
   23.6668   -5.2742    5.7842 C   0  0  0  0  0  0  0  0  0  0  0  0
   22.2860   -5.2530    6.0262 C   0  0  0  0  0  0  0  0  0  0  0  0
   21.3872   -4.7847    5.0904 C   0  0  0  0  0  0  0  0  0  0  0  0
   21.9177   -4.3351    3.8970 C   0  0  0  0  0  0  0  0  0  0  0  0
   23.2874   -4.3527    3.6472 C   0  0  0  0  0  0  0  0  0  0  0  0
   24.1928   -4.8266    4.5954 C   0  0  0  0  0  0  0  0  0  0  0  0
   24.3094   -5.4171    8.1456 C   0  0  0  0  0  0  0  0  0  0  0  0
   23.3401   -4.3821    8.5084 C   0  0  0  0  0  0  0  0  0  0  0  0
   23.3820   -3.2299    7.7444 C   0  0  0  0  0  0  0  0  0  0  0  0
   22.5444   -2.1595    7.9557 C   0  0  0  0  0  0  0  0  0  0  0  0
   21.6179   -2.2754    9.0003 C   0  0  0  0  0  0  0  0  0  0  0  0
   20.7550   -1.1027    9.2269 C   0  0  0  0  0  0  0  0  0  0  0  0
   19.6055   -1.0124    8.3565 N   0  0  1  0  0  0  0  0  0  0  0  0
   18.6589   -2.0518    8.4237 C   0  0  0  0  0  0  0  0  0  0  0  0
   17.6157   -1.9724    9.5046 C   0  0  0  0  0  0  0  0  0  0  0  0
   17.0602   -0.6338    9.7978 C   0  0  2  0  0  0  0  0  0  0  0  0
   15.6128   -0.5683    9.8115 N   0  0  0  0  0  0  0  0  0  0  0  0
   14.8374    0.3790    9.2360 C   0  0  0  0  0  0  0  0  0  0  0  0
   15.1669    1.3967    8.5727 O   0  0  0  0  0  0  0  0  0  0  0  0
   13.5240    0.1048    9.4621 N   0  0  0  0  0  0  0  0  0  0  0  0
   13.4901   -1.0228   10.1830 C   0  0  0  0  0  0  0  0  0  0  0  0
   12.3809   -1.6979   10.6522 C   0  0  0  0  0  0  0  0  0  0  0  0
   12.6105   -2.8459   11.3709 C   0  0  0  0  0  0  0  0  0  0  0  0
   13.8781   -3.3415   11.6372 C   0  0  0  0  0  0  0  0  0  0  0  0
   13.9616   -4.5318   12.3778 N   0  0  0  0  0  0  0  0  0  0  0  0
   15.1137   -5.2741   12.6860 C   0  0  0  0  0  0  0  0  0  0  0  0
   16.2503   -4.8971   12.2857 O   0  0  0  0  0  0  0  0  0  0  0  0
   15.0765   -6.5227   13.4835 C   0  0  0  0  0  0  0  0  0  0  0  0
   16.4200   -7.1572   13.6387 C   0  0  0  0  0  0  0  0  0  0  0  0
   14.9330   -2.6163   11.1402 C   0  0  0  0  0  0  0  0  0  0  0  0
   14.7754   -1.4489   10.4058 C   0  0  0  0  0  0  0  0  0  0  0  0
   17.5511    0.3316    8.7500 C   0  0  0  0  0  0  0  0  0  0  0  0
   19.0296    0.2797    8.4852 C   0  0  0  0  0  0  0  0  0  0  0  0
   21.5847   -3.4294    9.7542 C   0  0  0  0  0  0  0  0  0  0  0  0
   22.4342   -4.4954    9.5288 C   0  0  0  0  0  0  0  0  0  0  0  0
   25.0914   -6.0166    9.2002 N   0  0  0  0  0  0  0  0  0  0  0  0
   26.0645   -7.0366    8.8849 C   0  0  0  0  0  0  0  0  0  0  0  0
   26.7647   -7.5820    9.7755 O   0  0  0  0  0  0  0  0  0  0  0  0
  1  2  2  0
  2  3  1  0
  3  4  1  0
  4  5  1  0
  5  6  2  0
  6  7  1  0
  7  8  2  0
  8  9  1  0
  9 10  2  0
  4 11  2  0
 11 12  1  0
 12 13  2  0
 13 14  1  0
 14 15  2  0
 15 16  1  0
 17 16  1  1
 17 18  1  0
 18 19  1  0
 19 20  1  0
 20 21  1  6
 21 22  1  0
 22 23  2  0
 22 24  1  0
 24 25  1  0
 25 26  2  0
 26 27  1  0
 27 28  2  0
 28 29  1  0
 29 30  1  0
 30 31  2  0
 30 32  1  0
 32 33  1  0
 28 34  1  0
 34 35  2  0
 20 36  1  0
 36 37  1  0
 15 38  1  0
 38 39  2  0
 11 40  1  0
 40 41  1  0
 41 42  2  0
 41  2  1  0
 10  5  1  0
 39 12  1  0
 37 17  1  0
 35 21  1  0
 35 25  1  0
M  CHG  1  17   1
M  END
>  <shape_align_shape_tanimoto>  (2) 
0.42615456325527684

>  <shape_align_color_tanimoto>  (2) 
0.097924766697229965

>  <metric>  (2) 
color

>  <metric_score>  (2) 
0.098

>  <template_pid>  (2) 
6S9W

>  <template_shape_score>  (2) 
0.426

>  <template_color_score>  (2) 
0.098

>  <template_combo_score>  (2) 
0.262

$$$$
6S9W_combo_pose
     RDKit          3D

 42 47  0  0  0  0  0  0  0  0999 V2000
   25.4050   -9.3748   12.1924 C   0  0  0  0  0  0  0  0  0  0  0  0
   24.8596   -8.2930   11.6764 C   0  0  0  0  0  0  0  0  0  0  0  0
   23.6450   -8.3898   10.9543 N   0  0  0  0  0  0  0  0  0  0  0  0
   23.0042   -7.2384   10.3668 C   0  0  0  0  0  0  0  0  0  0  0  0
   21.7398   -7.4812    9.6967 C   0  0  0  0  0  0  0  0  0  0  0  0
   21.6409   -8.5538    8.8151 C   0  0  0  0  0  0  0  0  0  0  0  0
   20.4370   -8.8483    8.1670 C   0  0  0  0  0  0  0  0  0  0  0  0
   19.3118   -8.0514    8.4088 C   0  0  0  0  0  0  0  0  0  0  0  0
   19.3977   -6.9784    9.2860 C   0  0  0  0  0  0  0  0  0  0  0  0
   20.6024   -6.7142    9.9103 C   0  0  0  0  0  0  0  0  0  0  0  0
   23.5651   -6.0518   10.5033 C   0  0  0  0  0  0  0  0  0  0  0  0
   22.9912   -4.8399    9.9407 C   0  0  0  0  0  0  0  0  0  0  0  0
   22.4596   -4.8091    8.6388 C   0  0  0  0  0  0  0  0  0  0  0  0
   21.9342   -3.6045    8.1850 C   0  0  0  0  0  0  0  0  0  0  0  0
   21.9174   -2.4597    8.9550 C   0  0  0  0  0  0  0  0  0  0  0  0
   21.3576   -1.1649    8.4935 C   0  0  0  0  0  0  0  0  0  0  0  0
   20.0002   -0.9643    8.8310 N   0  0  1  0  0  0  0  0  0  0  0  0
   19.2020   -0.6192    7.6687 C   0  0  0  0  0  0  0  0  0  0  0  0
   17.8282   -0.1027    8.1013 C   0  0  0  0  0  0  0  0  0  0  0  0
   17.1504   -1.1497    8.9333 C   0  0  2  0  0  0  0  0  0  0  0  0
   15.8497   -0.7121    9.3863 N   0  0  0  0  0  0  0  0  0  0  0  0
   15.3029    0.5058    9.2266 C   0  0  0  0  0  0  0  0  0  0  0  0
   15.8206    1.5028    8.6445 O   0  0  0  0  0  0  0  0  0  0  0  0
   14.0801    0.5637    9.7791 N   0  0  0  0  0  0  0  0  0  0  0  0
   13.8215   -0.6564   10.3166 C   0  0  0  0  0  0  0  0  0  0  0  0
   12.7263   -1.1561   11.0033 C   0  0  0  0  0  0  0  0  0  0  0  0
   12.7132   -2.4577   11.4570 C   0  0  0  0  0  0  0  0  0  0  0  0
   13.8280   -3.2272   11.1971 C   0  0  0  0  0  0  0  0  0  0  0  0
   13.8694   -4.5839   11.6549 N   0  0  0  0  0  0  0  0  0  0  0  0
   14.4380   -4.7987   12.9386 C   0  0  0  0  0  0  0  0  0  0  0  0
   14.8593   -3.7756   13.5703 O   0  0  0  0  0  0  0  0  0  0  0  0
   14.5710   -6.1122   13.5810 C   0  0  0  0  0  0  0  0  0  0  0  0
   15.2753   -5.8777   14.9249 C   0  0  0  0  0  0  0  0  0  0  0  0
   14.9220   -2.7387   10.5145 C   0  0  0  0  0  0  0  0  0  0  0  0
   14.9422   -1.4366   10.0580 C   0  0  0  0  0  0  0  0  0  0  0  0
   18.0766   -1.4685   10.0836 C   0  0  0  0  0  0  0  0  0  0  0  0
   19.3185   -2.0730    9.4531 C   0  0  0  0  0  0  0  0  0  0  0  0
   22.4519   -2.5179   10.2448 C   0  0  0  0  0  0  0  0  0  0  0  0
   22.9823   -3.7012   10.7267 C   0  0  0  0  0  0  0  0  0  0  0  0
   24.8041   -5.8765   11.2273 N   0  0  0  0  0  0  0  0  0  0  0  0
   25.4719   -6.9924   11.8252 C   0  0  0  0  0  0  0  0  0  0  0  0
   26.5538   -6.8243   12.4542 O   0  0  0  0  0  0  0  0  0  0  0  0
  1  2  2  0
  2  3  1  0
  3  4  1  0
  4  5  1  0
  5  6  2  0
  6  7  1  0
  7  8  2  0
  8  9  1  0
  9 10  2  0
  4 11  2  0
 11 12  1  0
 12 13  2  0
 13 14  1  0
 14 15  2  0
 15 16  1  0
 17 16  1  6
 17 18  1  0
 18 19  1  0
 19 20  1  0
 20 21  1  1
 21 22  1  0
 22 23  2  0
 22 24  1  0
 24 25  1  0
 25 26  2  0
 26 27  1  0
 27 28  2  0
 28 29  1  0
 29 30  1  0
 30 31  2  0
 30 32  1  0
 32 33  1  0
 28 34  1  0
 34 35  2  0
 20 36  1  0
 36 37  1  0
 15 38  1  0
 38 39  2  0
 11 40  1  0
 40 41  1  0
 41 42  2  0
 41  2  1  0
 10  5  1  0
 39 12  1  0
 37 17  1  0
 35 21  1  0
 35 25  1  0
M  CHG  1  17   1
M  END
>  <shape_align_shape_tanimoto>  (3) 
0.43145137683474466

>  <shape_align_color_tanimoto>  (3) 
0.094282725395489181

>  <metric>  (3) 
combo

>  <metric_score>  (3) 
0.263

>  <template_pid>  (3) 
6S9W

>  <template_shape_score>  (3) 
0.431

>  <template_color_score>  (3) 
0.094

>  <template_combo_score>  (3) 
0.263

$$$$
