4ISH_shape_pose
     RDKit          3D

 38 43  0  0  0  0  0  0  0  0999 V2000
   -0.5294  -24.8001  -15.9703 C   0  0  0  0  0  0  0  0  0  0  0  0
   -0.7945  -26.1769  -15.9088 O   0  0  0  0  0  0  0  0  0  0  0  0
   -0.5887  -26.9606  -14.8069 C   0  0  0  0  0  0  0  0  0  0  0  0
   -0.0949  -26.5355  -13.5949 C   0  0  0  0  0  0  0  0  0  0  0  0
    0.0955  -27.3671  -12.5095 C   0  0  0  0  0  0  0  0  0  0  0  0
    0.6370  -26.7457  -11.2770 C   0  0  2  0  0  0  0  0  0  0  0  0
   -0.3526  -25.7643  -10.8664 N   0  0  0  0  0  0  0  0  0  0  0  0
   -0.0221  -24.7354   -9.9425 C   0  0  0  0  0  0  0  0  0  0  0  0
   -0.9490  -24.2953   -9.0205 C   0  0  0  0  0  0  0  0  0  0  0  0
   -0.5699  -23.2976   -8.1428 C   0  0  0  0  0  0  0  0  0  0  0  0
    0.7077  -22.7635   -8.1979 C   0  0  0  0  0  0  0  0  0  0  0  0
    1.0775  -21.7006   -7.2481 C   0  0  0  0  0  0  0  0  0  0  0  0
    0.0616  -20.7947   -6.7752 N   0  0  0  0  0  0  0  0  0  0  0  0
    2.2993  -21.6059   -6.8620 N   0  0  0  0  0  0  0  0  0  0  0  0
    1.6281  -23.2308   -9.1456 C   0  0  0  0  0  0  0  0  0  0  0  0
    1.2593  -24.2306  -10.0309 C   0  0  0  0  0  0  0  0  0  0  0  0
    2.1507  -24.7754  -11.0601 C   0  0  1  0  0  0  0  0  0  0  0  0
    3.5900  -24.5826  -10.6849 C   0  0  0  0  0  0  0  0  0  0  0  0
    4.4573  -23.5056  -10.6977 C   0  0  0  0  0  0  0  0  0  0  0  0
    5.7699  -23.5870  -10.2802 C   0  0  0  0  0  0  0  0  0  0  0  0
    6.2135  -24.8307   -9.8283 C   0  0  0  0  0  0  0  0  0  0  0  0
    5.3403  -25.8895   -9.8221 C   0  0  0  0  0  0  0  0  0  0  0  0
    4.0317  -25.8102  -10.2383 C   0  0  0  0  0  0  0  0  0  0  0  0
    2.9442  -26.8303  -10.3142 C   0  0  0  0  0  0  0  0  0  0  0  0
    2.0152  -26.2417  -11.3523 C   0  0  1  0  0  0  0  0  0  0  0  0
   -0.2222  -28.6951  -12.6363 C   0  0  0  0  0  0  0  0  0  0  0  0
   -0.0789  -29.6901  -11.5958 C   0  0  0  0  0  0  0  0  0  0  0  0
   -1.2068  -30.4204  -11.2658 C   0  0  0  0  0  0  0  0  0  0  0  0
   -1.1920  -31.4164  -10.2964 C   0  0  0  0  0  0  0  0  0  0  0  0
    0.0017  -31.6574   -9.6631 C   0  0  0  0  0  0  0  0  0  0  0  0
    0.0545  -32.6985   -8.6341 C   0  0  0  0  0  0  0  0  0  0  0  0
   -0.9819  -33.3786   -8.3237 O   0  0  0  0  0  0  0  0  0  0  0  0
    1.2251  -32.9955   -7.9503 O   0  0  0  0  0  0  0  0  0  0  0  0
    1.1570  -30.9645   -9.9479 C   0  0  0  0  0  0  0  0  0  0  0  0
    1.0741  -29.9878  -10.9222 C   0  0  0  0  0  0  0  0  0  0  0  0
   -0.7264  -29.1539  -13.8592 C   0  0  0  0  0  0  0  0  0  0  0  0
   -0.9122  -28.3152  -14.9345 C   0  0  0  0  0  0  0  0  0  0  0  0
   -1.4176  -28.8357  -16.1220 O   0  0  0  0  0  0  0  0  0  0  0  0
  1  2  1  0
  2  3  1  0
  3  4  2  0
  4  5  1  0
  6  5  1  6
  6  7  1  0
  7  8  1  0
  8  9  2  0
  9 10  1  0
 10 11  2  0
 11 12  1  0
 12 13  1  0
 12 14  2  0
 11 15  1  0
 15 16  2  0
 17 16  1  1
 17 18  1  0
 18 19  2  0
 19 20  1  0
 20 21  2  0
 21 22  1  0
 22 23  2  0
 23 24  1  0
 25 24  1  1
  5 26  2  0
 26 27  1  0
 27 28  2  0
 28 29  1  0
 29 30  2  0
 30 31  1  0
 31 32  2  0
 31 33  1  0
 30 34  1  0
 34 35  2  0
 26 36  1  0
 36 37  2  0
 37 38  1  0
 37  3  1  0
 25  6  1  0
 35 27  1  0
 16  8  1  0
 25 17  1  0
 23 18  1  0
M  CHG  2  14   1  33  -1
M  END
>  <shape_align_shape_tanimoto>  (1) 
0.31508795616502761

>  <shape_align_color_tanimoto>  (1) 
0.0019929500228079676

>  <metric>  (1) 
shape

>  <metric_score>  (1) 
0.315

>  <template_pid>  (1) 
4ISH

>  <template_shape_score>  (1) 
0.315

>  <template_color_score>  (1) 
0.002

>  <template_combo_score>  (1) 
0.159

$$$$
4ISH_color_pose
     RDKit          3D

 38 43  0  0  0  0  0  0  0  0999 V2000
    6.2305  -23.3700  -10.4283 C   0  0  0  0  0  0  0  0  0  0  0  0
    6.1230  -24.0486  -11.6646 O   0  0  0  0  0  0  0  0  0  0  0  0
    4.9018  -24.6361  -11.9665 C   0  0  0  0  0  0  0  0  0  0  0  0
    3.8116  -24.5864  -11.1281 C   0  0  0  0  0  0  0  0  0  0  0  0
    2.5897  -25.1815  -11.4443 C   0  0  0  0  0  0  0  0  0  0  0  0
    1.5221  -25.0480  -10.4349 C   0  0  2  0  0  0  0  0  0  0  0  0
    1.0517  -23.6643  -10.5345 N   0  0  0  0  0  0  0  0  0  0  0  0
    0.9378  -22.8058   -9.4115 C   0  0  0  0  0  0  0  0  0  0  0  0
    0.9536  -21.4368   -9.5857 C   0  0  0  0  0  0  0  0  0  0  0  0
    0.8397  -20.6079   -8.4834 C   0  0  0  0  0  0  0  0  0  0  0  0
    0.7131  -21.1860   -7.2360 C   0  0  0  0  0  0  0  0  0  0  0  0
    0.5934  -20.3038   -6.0772 C   0  0  0  0  0  0  0  0  0  0  0  0
    1.1869  -19.0108   -6.0253 N   0  0  0  0  0  0  0  0  0  0  0  0
   -0.0840  -20.7046   -5.0371 N   0  0  0  0  0  0  0  0  0  0  0  0
    0.6999  -22.5724   -7.0866 C   0  0  0  0  0  0  0  0  0  0  0  0
    0.8125  -23.4101   -8.1764 C   0  0  0  0  0  0  0  0  0  0  0  0
    0.8099  -24.8659   -8.1111 C   0  0  1  0  0  0  0  0  0  0  0  0
   -0.3949  -25.5588   -8.5589 C   0  0  0  0  0  0  0  0  0  0  0  0
   -1.7141  -25.1458   -8.5779 C   0  0  0  0  0  0  0  0  0  0  0  0
   -2.7130  -25.9761   -9.0484 C   0  0  0  0  0  0  0  0  0  0  0  0
   -2.3988  -27.2449   -9.5110 C   0  0  0  0  0  0  0  0  0  0  0  0
   -1.0778  -27.6391   -9.4843 C   0  0  0  0  0  0  0  0  0  0  0  0
   -0.0581  -26.8395   -9.0232 C   0  0  0  0  0  0  0  0  0  0  0  0
    1.4145  -26.9431   -8.8565 C   0  0  0  0  0  0  0  0  0  0  0  0
    1.8189  -25.5138   -9.0790 C   0  0  1  0  0  0  0  0  0  0  0  0
    2.4675  -25.8426  -12.6375 C   0  0  0  0  0  0  0  0  0  0  0  0
    1.2883  -26.5002  -13.1272 C   0  0  0  0  0  0  0  0  0  0  0  0
    0.5593  -27.4778  -12.5217 C   0  0  0  0  0  0  0  0  0  0  0  0
   -0.5839  -28.0393  -13.0666 C   0  0  0  0  0  0  0  0  0  0  0  0
   -1.0416  -27.6086  -14.2949 C   0  0  0  0  0  0  0  0  0  0  0  0
   -2.2329  -28.1483  -14.9326 C   0  0  0  0  0  0  0  0  0  0  0  0
   -2.5579  -27.6845  -16.0483 O   0  0  0  0  0  0  0  0  0  0  0  0
   -2.9778  -29.1458  -14.3145 O   0  0  0  0  0  0  0  0  0  0  0  0
   -0.3248  -26.6176  -14.9376 C   0  0  0  0  0  0  0  0  0  0  0  0
    0.8123  -26.0692  -14.3793 C   0  0  0  0  0  0  0  0  0  0  0  0
    3.5933  -25.8770  -13.4701 C   0  0  0  0  0  0  0  0  0  0  0  0
    4.7793  -25.2919  -13.1484 C   0  0  0  0  0  0  0  0  0  0  0  0
    5.8657  -25.3656  -14.0303 O   0  0  0  0  0  0  0  0  0  0  0  0
  1  2  1  0
  2  3  1  0
  3  4  2  0
  4  5  1  0
  6  5  1  6
  6  7  1  0
  7  8  1  0
  8  9  2  0
  9 10  1  0
 10 11  2  0
 11 12  1  0
 12 13  1  0
 12 14  2  0
 11 15  1  0
 15 16  2  0
 17 16  1  6
 17 18  1  0
 18 19  2  0
 19 20  1  0
 20 21  2  0
 21 22  1  0
 22 23  2  0
 23 24  1  0
 25 24  1  6
  5 26  2  0
 26 27  1  0
 27 28  2  0
 28 29  1  0
 29 30  2  0
 30 31  1  0
 31 32  2  0
 31 33  1  0
 30 34  1  0
 34 35  2  0
 26 36  1  0
 36 37  2  0
 37 38  1  0
 37  3  1  0
 25  6  1  0
 35 27  1  0
 16  8  1  0
 25 17  1  0
 23 18  1  0
M  CHG  2  14   1  33  -1
M  END
>  <shape_align_shape_tanimoto>  (2) 
0.28460887010614733

>  <shape_align_color_tanimoto>  (2) 
0.044374266428818275

>  <metric>  (2) 
color

>  <metric_score>  (2) 
0.044

>  <template_pid>  (2) 
4ISH

>  <template_shape_score>  (2) 
0.285

>  <template_color_score>  (2) 
0.044

>  <template_combo_score>  (2) 
0.164

$$$$
4ISH_combo_pose
     RDKit          3D

 38 43  0  0  0  0  0  0  0  0999 V2000
    0.0488  -24.7016   -6.3256 C   0  0  0  0  0  0  0  0  0  0  0  0
    0.1732  -23.2973   -6.1021 O   0  0  0  0  0  0  0  0  0  0  0  0
    0.7172  -22.5417   -7.1400 C   0  0  0  0  0  0  0  0  0  0  0  0
    1.1163  -23.1232   -8.3221 C   0  0  0  0  0  0  0  0  0  0  0  0
    1.6596  -22.4121   -9.3755 C   0  0  0  0  0  0  0  0  0  0  0  0
    2.0920  -23.1548  -10.5797 C   0  0  2  0  0  0  0  0  0  0  0  0
    1.0815  -24.1520  -10.8418 N   0  0  0  0  0  0  0  0  0  0  0  0
    1.2057  -25.5291  -10.5373 C   0  0  0  0  0  0  0  0  0  0  0  0
    0.1503  -26.3249  -10.1524 C   0  0  0  0  0  0  0  0  0  0  0  0
    0.3283  -27.6633   -9.8654 C   0  0  0  0  0  0  0  0  0  0  0  0
    1.6111  -28.1974   -9.9747 C   0  0  0  0  0  0  0  0  0  0  0  0
    1.7903  -29.6227   -9.6672 C   0  0  0  0  0  0  0  0  0  0  0  0
    3.0793  -29.9799   -9.1375 N   0  0  0  0  0  0  0  0  0  0  0  0
    0.8778  -30.4930   -9.8508 N   0  0  0  0  0  0  0  0  0  0  0  0
    2.6908  -27.4025  -10.3642 C   0  0  0  0  0  0  0  0  0  0  0  0
    2.4864  -26.0908  -10.6400 C   0  0  0  0  0  0  0  0  0  0  0  0
    3.5596  -25.1772  -11.0645 C   0  0  1  0  0  0  0  0  0  0  0  0
    3.4799  -24.8703  -12.5302 C   0  0  0  0  0  0  0  0  0  0  0  0
    3.0054  -25.6578  -13.5592 C   0  0  0  0  0  0  0  0  0  0  0  0
    3.0284  -25.1643  -14.8505 C   0  0  0  0  0  0  0  0  0  0  0  0
    3.5329  -23.8851  -15.0612 C   0  0  0  0  0  0  0  0  0  0  0  0
    4.0070  -23.1013  -14.0242 C   0  0  0  0  0  0  0  0  0  0  0  0
    3.9835  -23.6002  -12.7192 C   0  0  0  0  0  0  0  0  0  0  0  0
    4.3976  -23.0580  -11.3942 C   0  0  0  0  0  0  0  0  0  0  0  0
    3.4259  -23.7945  -10.4711 C   0  0  1  0  0  0  0  0  0  0  0  0
    1.7983  -21.0539   -9.2124 C   0  0  0  0  0  0  0  0  0  0  0  0
    2.3056  -20.1831  -10.2302 C   0  0  0  0  0  0  0  0  0  0  0  0
    1.7644  -20.0136  -11.4884 C   0  0  0  0  0  0  0  0  0  0  0  0
    2.3394  -19.1579  -12.4330 C   0  0  0  0  0  0  0  0  0  0  0  0
    3.4831  -18.4615  -12.0951 C   0  0  0  0  0  0  0  0  0  0  0  0
    4.1313  -17.5547  -13.0371 C   0  0  0  0  0  0  0  0  0  0  0  0
    5.1743  -16.9528  -12.6583 O   0  0  0  0  0  0  0  0  0  0  0  0
    3.6098  -17.3600  -14.3205 O   0  0  0  0  0  0  0  0  0  0  0  0
    4.0492  -18.6082  -10.8435 C   0  0  0  0  0  0  0  0  0  0  0  0
    3.4690  -19.4579   -9.9213 C   0  0  0  0  0  0  0  0  0  0  0  0
    1.3950  -20.4543   -8.0110 C   0  0  0  0  0  0  0  0  0  0  0  0
    0.8568  -21.1873   -6.9765 C   0  0  0  0  0  0  0  0  0  0  0  0
    0.4610  -20.5784   -5.7895 O   0  0  0  0  0  0  0  0  0  0  0  0
  1  2  1  0
  2  3  1  0
  3  4  2  0
  4  5  1  0
  6  5  1  1
  6  7  1  0
  7  8  1  0
  8  9  2  0
  9 10  1  0
 10 11  2  0
 11 12  1  0
 12 13  1  0
 12 14  2  0
 11 15  1  0
 15 16  2  0
 17 16  1  1
 17 18  1  0
 18 19  2  0
 19 20  1  0
 20 21  2  0
 21 22  1  0
 22 23  2  0
 23 24  1  0
 25 24  1  6
  5 26  2  0
 26 27  1  0
 27 28  2  0
 28 29  1  0
 29 30  2  0
 30 31  1  0
 31 32  2  0
 31 33  1  0
 30 34  1  0
 34 35  2  0
 26 36  1  0
 36 37  2  0
 37 38  1  0
 37  3  1  0
 25  6  1  0
 35 27  1  0
 16  8  1  0
 25 17  1  0
 23 18  1  0
M  CHG  2  14   1  33  -1
M  END
>  <shape_align_shape_tanimoto>  (3) 
0.30983458735874397

>  <shape_align_color_tanimoto>  (3) 
0.034894967717418034

>  <metric>  (3) 
combo

>  <metric_score>  (3) 
0.172

>  <template_pid>  (3) 
4ISH

>  <template_shape_score>  (3) 
0.310

>  <template_color_score>  (3) 
0.035

>  <template_combo_score>  (3) 
0.172

$$$$
