5MFS_shape_pose
     RDKit          3D

 20 22  0  0  0  0  0  0  0  0999 V2000
   13.8219   10.1236   17.2042 N   0  0  0  0  0  0  0  0  0  0  0  0
   12.9476    9.8305   16.0428 C   0  0  1  0  0  0  0  0  0  0  0  0
   11.9378   10.9969   15.8495 C   0  0  0  0  0  0  0  0  0  0  0  0
   11.5662   11.4111   14.5176 C   0  0  0  0  0  0  0  0  0  0  0  0
   12.3045   11.4405   13.2891 C   0  0  0  0  0  0  0  0  0  0  0  0
   11.7336   12.3910   12.4170 C   0  0  0  0  0  0  0  0  0  0  0  0
   12.2355   12.6180   11.1798 C   0  0  0  0  0  0  0  0  0  0  0  0
   13.3361   11.8930   10.7748 C   0  0  0  0  0  0  0  0  0  0  0  0
   13.9501   10.9478   11.5694 C   0  0  0  0  0  0  0  0  0  0  0  0
   15.1241   10.2609   11.0883 C   0  0  0  0  0  0  0  0  0  0  0  0
   16.4065   10.4576   11.5449 C   0  0  0  0  0  0  0  0  0  0  0  0
   17.5005    9.7591   11.0659 C   0  0  0  0  0  0  0  0  0  0  0  0
   17.3229    8.8034   10.0708 C   0  0  0  0  0  0  0  0  0  0  0  0
   16.0365    8.5919    9.5975 C   0  0  0  0  0  0  0  0  0  0  0  0
   14.9527    9.3125   10.1013 C   0  0  0  0  0  0  0  0  0  0  0  0
   13.4409   10.7244   12.8078 C   0  0  0  0  0  0  0  0  0  0  0  0
   14.1794    9.6279   13.5736 C   0  0  0  0  0  0  0  0  0  0  0  0
   13.6357    9.6201   14.8813 C   0  0  0  0  0  0  0  0  0  0  0  0
   12.3833    9.3342   14.2648 O   0  0  0  0  0  0  0  0  0  0  0  0
   14.0689   10.9819   14.9873 O   0  0  0  0  0  0  0  0  0  0  0  0
  2  1  1  1
  2  3  1  0
  3  4  1  0
  4  5  1  0
  5  6  2  0
  6  7  1  0
  7  8  2  0
  8  9  1  0
  9 10  1  0
 10 11  2  0
 11 12  1  0
 12 13  2  0
 13 14  1  0
 14 15  2  0
  9 16  2  0
 16 17  1  0
 17 18  1  0
 18 19  1  0
 18 20  1  0
 18  2  1  0
 16  5  1  0
 15 10  1  0
M  CHG  1   1   1
M  END
>  <shape_align_shape_tanimoto>  (1) 
0.6187378201181668

>  <shape_align_color_tanimoto>  (1) 
0.0044218847160438701

>  <metric>  (1) 
shape

>  <metric_score>  (1) 
0.619

>  <template_pid>  (1) 
5MFS

>  <template_shape_score>  (1) 
0.619

>  <template_color_score>  (1) 
0.004

>  <template_combo_score>  (1) 
0.312

$$$$
5MFS_color_pose
     RDKit          3D

 20 22  0  0  0  0  0  0  0  0999 V2000
   14.8088    8.4484   11.0333 N   0  0  0  0  0  0  0  0  0  0  0  0
   16.0137    9.1878   10.8799 C   0  0  1  0  0  0  0  0  0  0  0  0
   15.9643    9.9753    9.5846 C   0  0  0  0  0  0  0  0  0  0  0  0
   15.2224   11.2814    9.7115 C   0  0  0  0  0  0  0  0  0  0  0  0
   14.1066   11.1911   10.6884 C   0  0  0  0  0  0  0  0  0  0  0  0
   12.9109   11.4267   10.0426 C   0  0  0  0  0  0  0  0  0  0  0  0
   11.7292   11.3953   10.7525 C   0  0  0  0  0  0  0  0  0  0  0  0
   11.7807   11.1254   12.1021 C   0  0  0  0  0  0  0  0  0  0  0  0
   12.9918   10.8842   12.7656 C   0  0  0  0  0  0  0  0  0  0  0  0
   12.8901   10.5758   14.1746 C   0  0  0  0  0  0  0  0  0  0  0  0
   12.3298   11.5751   14.9839 C   0  0  0  0  0  0  0  0  0  0  0  0
   12.1504   11.3822   16.3377 C   0  0  0  0  0  0  0  0  0  0  0  0
   12.5198   10.1940   16.9336 C   0  0  0  0  0  0  0  0  0  0  0  0
   13.0740    9.1958   16.1513 C   0  0  0  0  0  0  0  0  0  0  0  0
   13.2419    9.4221   14.7850 C   0  0  0  0  0  0  0  0  0  0  0  0
   14.1611   10.9196   12.0483 C   0  0  0  0  0  0  0  0  0  0  0  0
   15.3921   10.6940   12.8228 C   0  0  0  0  0  0  0  0  0  0  0  0
   16.4636    9.9994   12.0391 C   0  0  0  0  0  0  0  0  0  0  0  0
   17.2012    9.2035   12.9278 O   0  0  0  0  0  0  0  0  0  0  0  0
   17.3323   10.9840   11.5368 O   0  0  0  0  0  0  0  0  0  0  0  0
  2  1  1  1
  2  3  1  0
  3  4  1  0
  4  5  1  0
  5  6  2  0
  6  7  1  0
  7  8  2  0
  8  9  1  0
  9 10  1  0
 10 11  2  0
 11 12  1  0
 12 13  2  0
 13 14  1  0
 14 15  2  0
  9 16  2  0
 16 17  1  0
 17 18  1  0
 18 19  1  0
 18 20  1  0
 18  2  1  0
 16  5  1  0
 15 10  1  0
M  CHG  1   1   1
M  END
>  <shape_align_shape_tanimoto>  (2) 
0.60296448089942889

>  <shape_align_color_tanimoto>  (2) 
0.090213329200764608

>  <metric>  (2) 
color

>  <metric_score>  (2) 
0.090

>  <template_pid>  (2) 
5MFS

>  <template_shape_score>  (2) 
0.603

>  <template_color_score>  (2) 
0.090

>  <template_combo_score>  (2) 
0.347

$$$$
5MFS_combo_pose
     RDKit          3D

 20 22  0  0  0  0  0  0  0  0999 V2000
   14.8088    8.4484   11.0333 N   0  0  0  0  0  0  0  0  0  0  0  0
   16.0137    9.1878   10.8799 C   0  0  1  0  0  0  0  0  0  0  0  0
   15.9643    9.9753    9.5846 C   0  0  0  0  0  0  0  0  0  0  0  0
   15.2224   11.2814    9.7115 C   0  0  0  0  0  0  0  0  0  0  0  0
   14.1066   11.1911   10.6884 C   0  0  0  0  0  0  0  0  0  0  0  0
   12.9109   11.4267   10.0426 C   0  0  0  0  0  0  0  0  0  0  0  0
   11.7292   11.3953   10.7525 C   0  0  0  0  0  0  0  0  0  0  0  0
   11.7807   11.1254   12.1021 C   0  0  0  0  0  0  0  0  0  0  0  0
   12.9918   10.8842   12.7656 C   0  0  0  0  0  0  0  0  0  0  0  0
   12.8901   10.5758   14.1746 C   0  0  0  0  0  0  0  0  0  0  0  0
   12.3298   11.5751   14.9839 C   0  0  0  0  0  0  0  0  0  0  0  0
   12.1504   11.3822   16.3377 C   0  0  0  0  0  0  0  0  0  0  0  0
   12.5198   10.1940   16.9336 C   0  0  0  0  0  0  0  0  0  0  0  0
   13.0740    9.1958   16.1513 C   0  0  0  0  0  0  0  0  0  0  0  0
   13.2419    9.4221   14.7850 C   0  0  0  0  0  0  0  0  0  0  0  0
   14.1611   10.9196   12.0483 C   0  0  0  0  0  0  0  0  0  0  0  0
   15.3921   10.6940   12.8228 C   0  0  0  0  0  0  0  0  0  0  0  0
   16.4636    9.9994   12.0391 C   0  0  0  0  0  0  0  0  0  0  0  0
   17.2012    9.2035   12.9278 O   0  0  0  0  0  0  0  0  0  0  0  0
   17.3323   10.9840   11.5368 O   0  0  0  0  0  0  0  0  0  0  0  0
  2  1  1  1
  2  3  1  0
  3  4  1  0
  4  5  1  0
  5  6  2  0
  6  7  1  0
  7  8  2  0
  8  9  1  0
  9 10  1  0
 10 11  2  0
 11 12  1  0
 12 13  2  0
 13 14  1  0
 14 15  2  0
  9 16  2  0
 16 17  1  0
 17 18  1  0
 18 19  1  0
 18 20  1  0
 18  2  1  0
 16  5  1  0
 15 10  1  0
M  CHG  1   1   1
M  END
>  <shape_align_shape_tanimoto>  (3) 
0.60296448089942889

>  <shape_align_color_tanimoto>  (3) 
0.090213329200764608

>  <metric>  (3) 
combo

>  <metric_score>  (3) 
0.347

>  <template_pid>  (3) 
5MFS

>  <template_shape_score>  (3) 
0.603

>  <template_color_score>  (3) 
0.090

>  <template_combo_score>  (3) 
0.347

$$$$
