3U7L_shape_pose
     RDKit          3D

 31 32  0  0  0  0  0  0  0  0999 V2000
   -7.8724    2.5676   11.8293 C   0  0  0  0  0  0  0  0  0  0  0  0
   -6.4653    2.3234   11.3241 C   0  0  0  0  0  0  0  0  0  0  0  0
   -5.4933    2.7096   12.3805 C   0  0  0  0  0  0  0  0  0  0  0  0
   -6.2512    3.2905   10.1671 C   0  0  0  0  0  0  0  0  0  0  0  0
   -6.2901    0.9192   10.8034 C   0  0  2  0  0  0  0  0  0  0  0  0
   -7.2288    0.7813    9.7342 N   0  0  0  0  0  0  0  0  0  0  0  0
   -6.7500    0.4989    8.3972 C   0  0  0  0  0  0  0  0  0  0  0  0
   -5.5228    0.3714    8.1521 O   0  0  0  0  0  0  0  0  0  0  0  0
   -7.6482    0.3534    7.3036 N   0  0  0  0  0  0  0  0  0  0  0  0
   -7.2233    0.0763    5.9763 C   0  0  0  0  0  0  0  0  0  0  0  0
   -6.9221    1.0689    5.0583 C   0  0  0  0  0  0  0  0  0  0  0  0
   -6.5103    0.7896    3.7716 C   0  0  0  0  0  0  0  0  0  0  0  0
   -6.2233    1.7822    2.8977 F   0  0  0  0  0  0  0  0  0  0  0  0
   -6.3970   -0.5273    3.3942 C   0  0  0  0  0  0  0  0  0  0  0  0
   -6.6954   -1.5218    4.3037 C   0  0  0  0  0  0  0  0  0  0  0  0
   -6.5898   -2.8405    3.9501 F   0  0  0  0  0  0  0  0  0  0  0  0
   -7.1085   -1.2629    5.5939 C   0  0  0  0  0  0  0  0  0  0  0  0
   -6.1645   -0.1039   11.8090 C   0  0  0  0  0  0  0  0  0  0  0  0
   -5.3068    0.1713   12.7580 O   0  0  0  0  0  0  0  0  0  0  0  0
   -6.8284   -1.3599   11.9202 N   0  0  0  0  0  0  0  0  0  0  0  0
   -7.8128   -1.8527   11.0098 C   0  0  0  0  0  0  0  0  0  0  0  0
   -7.3726   -2.5128    9.7927 C   0  0  0  0  0  0  0  0  0  0  0  0
   -8.2741   -2.9760    9.0116 O   0  0  0  0  0  0  0  0  0  0  0  0
   -6.0377   -2.6992    9.3692 N   0  0  0  0  0  0  0  0  0  0  0  0
   -5.6935   -3.3251    8.2206 O   0  0  0  0  0  0  0  0  0  0  0  0
   -6.5198   -2.1435   13.0971 C   0  0  0  0  0  0  0  0  0  0  0  0
   -5.4521   -3.1196   13.1329 C   0  0  0  0  0  0  0  0  0  0  0  0
   -5.4423   -4.3106   12.2636 C   0  0  0  0  0  0  0  0  0  0  0  0
   -4.0162   -4.4541   11.7774 C   0  0  0  0  0  0  0  0  0  0  0  0
   -3.2473   -3.8327   12.9397 C   0  0  0  0  0  0  0  0  0  0  0  0
   -4.0434   -2.5129   13.0331 C   0  0  0  0  0  0  0  0  0  0  0  0
  1  2  1  0
  2  3  1  0
  2  4  1  0
  2  5  1  0
  5  6  1  6
  6  7  1  0
  7  8  2  0
  7  9  1  0
  9 10  1  0
 10 11  2  0
 11 12  1  0
 12 13  1  0
 12 14  2  0
 14 15  1  0
 15 16  1  0
 15 17  2  0
  5 18  1  0
 18 19  2  0
 18 20  1  0
 20 21  1  0
 21 22  1  0
 22 23  2  0
 22 24  1  0
 24 25  1  0
 20 26  1  0
 26 27  1  0
 27 28  1  0
 28 29  1  0
 29 30  1  0
 30 31  1  0
 17 10  1  0
 31 27  1  0
M  END
>  <shape_align_shape_tanimoto>  (1) 
0.507048235620016

>  <shape_align_color_tanimoto>  (1) 
0.010830955507167164

>  <metric>  (1) 
shape

>  <metric_score>  (1) 
0.507

>  <template_pid>  (1) 
3U7L

>  <template_shape_score>  (1) 
0.507

>  <template_color_score>  (1) 
0.011

>  <template_combo_score>  (1) 
0.259

$$$$
3U7L_color_pose
     RDKit          3D

 31 32  0  0  0  0  0  0  0  0999 V2000
   -5.4469    1.7976   10.4467 C   0  0  0  0  0  0  0  0  0  0  0  0
   -6.0765    1.0721   11.6686 C   0  0  0  0  0  0  0  0  0  0  0  0
   -7.2606    1.9304   11.9910 C   0  0  0  0  0  0  0  0  0  0  0  0
   -5.0765    1.2439   12.7622 C   0  0  0  0  0  0  0  0  0  0  0  0
   -6.3385   -0.2821   11.1830 C   0  0  2  0  0  0  0  0  0  0  0  0
   -7.2884   -0.1529    9.9959 N   0  0  0  0  0  0  0  0  0  0  0  0
   -6.8017   -0.4826    8.7058 C   0  0  0  0  0  0  0  0  0  0  0  0
   -5.6277   -0.8699    8.5250 O   0  0  0  0  0  0  0  0  0  0  0  0
   -7.7332   -0.3464    7.6221 N   0  0  0  0  0  0  0  0  0  0  0  0
   -7.4041   -0.6337    6.2810 C   0  0  0  0  0  0  0  0  0  0  0  0
   -7.5822   -1.8872    5.7693 C   0  0  0  0  0  0  0  0  0  0  0  0
   -7.2862   -2.2467    4.4684 C   0  0  0  0  0  0  0  0  0  0  0  0
   -7.4772   -3.5056    3.9948 F   0  0  0  0  0  0  0  0  0  0  0  0
   -6.7779   -1.2649    3.6434 C   0  0  0  0  0  0  0  0  0  0  0  0
   -6.5794    0.0273    4.1213 C   0  0  0  0  0  0  0  0  0  0  0  0
   -6.0820    0.9340    3.2641 F   0  0  0  0  0  0  0  0  0  0  0  0
   -6.8871    0.3590    5.4368 C   0  0  0  0  0  0  0  0  0  0  0  0
   -6.9427   -1.3219   11.9617 C   0  0  0  0  0  0  0  0  0  0  0  0
   -8.2028   -1.5604   11.6313 O   0  0  0  0  0  0  0  0  0  0  0  0
   -6.4749   -2.1377   12.9938 N   0  0  0  0  0  0  0  0  0  0  0  0
   -5.1522   -2.2080   13.5588 C   0  0  0  0  0  0  0  0  0  0  0  0
   -4.3021   -3.2259   12.8497 C   0  0  0  0  0  0  0  0  0  0  0  0
   -3.0939   -3.4303   13.2098 O   0  0  0  0  0  0  0  0  0  0  0  0
   -4.8909   -3.9452   11.7724 N   0  0  0  0  0  0  0  0  0  0  0  0
   -4.1243   -4.8608   11.1358 O   0  0  0  0  0  0  0  0  0  0  0  0
   -7.4458   -3.0846   13.6158 C   0  0  0  0  0  0  0  0  0  0  0  0
   -8.1999   -2.5639   14.7526 C   0  0  0  0  0  0  0  0  0  0  0  0
   -9.1732   -3.6174   15.3139 C   0  0  0  0  0  0  0  0  0  0  0  0
   -9.8239   -2.7938   16.4026 C   0  0  0  0  0  0  0  0  0  0  0  0
   -8.6447   -2.0694   17.0139 C   0  0  0  0  0  0  0  0  0  0  0  0
   -7.4930   -2.1927   16.0004 C   0  0  0  0  0  0  0  0  0  0  0  0
  1  2  1  0
  2  3  1  0
  2  4  1  0
  2  5  1  0
  5  6  1  6
  6  7  1  0
  7  8  2  0
  7  9  1  0
  9 10  1  0
 10 11  2  0
 11 12  1  0
 12 13  1  0
 12 14  2  0
 14 15  1  0
 15 16  1  0
 15 17  2  0
  5 18  1  0
 18 19  2  0
 18 20  1  0
 20 21  1  0
 21 22  1  0
 22 23  2  0
 22 24  1  0
 24 25  1  0
 20 26  1  0
 26 27  1  0
 27 28  1  0
 28 29  1  0
 29 30  1  0
 30 31  1  0
 17 10  1  0
 31 27  1  0
M  END
>  <shape_align_shape_tanimoto>  (2) 
0.4623988597714625

>  <shape_align_color_tanimoto>  (2) 
0.16099189109297696

>  <metric>  (2) 
color

>  <metric_score>  (2) 
0.161

>  <template_pid>  (2) 
3U7L

>  <template_shape_score>  (2) 
0.462

>  <template_color_score>  (2) 
0.161

>  <template_combo_score>  (2) 
0.312

$$$$
3U7L_combo_pose
     RDKit          3D

 31 32  0  0  0  0  0  0  0  0999 V2000
   -7.3154    1.6560   12.1802 C   0  0  0  0  0  0  0  0  0  0  0  0
   -6.0680    0.9526   11.6677 C   0  0  0  0  0  0  0  0  0  0  0  0
   -5.7786    1.7527   10.3528 C   0  0  0  0  0  0  0  0  0  0  0  0
   -4.8810    1.2462   12.5008 C   0  0  0  0  0  0  0  0  0  0  0  0
   -6.2764   -0.4264   11.1752 C   0  0  2  0  0  0  0  0  0  0  0  0
   -7.2537   -0.2275   10.0378 N   0  0  0  0  0  0  0  0  0  0  0  0
   -6.8652   -0.4767    8.7169 C   0  0  0  0  0  0  0  0  0  0  0  0
   -5.7461   -0.8671    8.3342 O   0  0  0  0  0  0  0  0  0  0  0  0
   -7.8493   -0.2641    7.6850 N   0  0  0  0  0  0  0  0  0  0  0  0
   -7.4381   -0.5220    6.3452 C   0  0  0  0  0  0  0  0  0  0  0  0
   -7.6435   -1.8292    5.8944 C   0  0  0  0  0  0  0  0  0  0  0  0
   -7.2697   -2.1553    4.6051 C   0  0  0  0  0  0  0  0  0  0  0  0
   -7.4882   -3.4434    4.2052 F   0  0  0  0  0  0  0  0  0  0  0  0
   -6.7016   -1.2135    3.7668 C   0  0  0  0  0  0  0  0  0  0  0  0
   -6.5094    0.0783    4.2422 C   0  0  0  0  0  0  0  0  0  0  0  0
   -5.9532    0.9907    3.4141 F   0  0  0  0  0  0  0  0  0  0  0  0
   -6.8736    0.4421    5.5341 C   0  0  0  0  0  0  0  0  0  0  0  0
   -6.9346   -1.4171   11.9996 C   0  0  0  0  0  0  0  0  0  0  0  0
   -8.1872   -1.6272   11.6947 O   0  0  0  0  0  0  0  0  0  0  0  0
   -6.4531   -2.1940   13.0670 N   0  0  0  0  0  0  0  0  0  0  0  0
   -5.0810   -2.2101   13.5469 C   0  0  0  0  0  0  0  0  0  0  0  0
   -4.2691   -3.2379   12.8420 C   0  0  0  0  0  0  0  0  0  0  0  0
   -3.0573   -3.3575   13.1635 O   0  0  0  0  0  0  0  0  0  0  0  0
   -4.8383   -4.0709   11.8276 N   0  0  0  0  0  0  0  0  0  0  0  0
   -4.0464   -4.9858   11.2252 O   0  0  0  0  0  0  0  0  0  0  0  0
   -7.3611   -3.0722   13.8221 C   0  0  0  0  0  0  0  0  0  0  0  0
   -7.9398   -2.5254   15.0548 C   0  0  0  0  0  0  0  0  0  0  0  0
   -8.8808   -3.5680   15.7308 C   0  0  0  0  0  0  0  0  0  0  0  0
  -10.2233   -3.3143   15.0824 C   0  0  0  0  0  0  0  0  0  0  0  0
  -10.1899   -1.9195   14.4903 C   0  0  0  0  0  0  0  0  0  0  0  0
   -8.8379   -1.3479   14.8810 C   0  0  0  0  0  0  0  0  0  0  0  0
  1  2  1  0
  2  3  1  0
  2  4  1  0
  2  5  1  0
  5  6  1  6
  6  7  1  0
  7  8  2  0
  7  9  1  0
  9 10  1  0
 10 11  2  0
 11 12  1  0
 12 13  1  0
 12 14  2  0
 14 15  1  0
 15 16  1  0
 15 17  2  0
  5 18  1  0
 18 19  2  0
 18 20  1  0
 20 21  1  0
 21 22  1  0
 22 23  2  0
 22 24  1  0
 24 25  1  0
 20 26  1  0
 26 27  1  0
 27 28  1  0
 28 29  1  0
 29 30  1  0
 30 31  1  0
 17 10  1  0
 31 27  1  0
M  END
>  <shape_align_shape_tanimoto>  (3) 
0.47025005046877122

>  <shape_align_color_tanimoto>  (3) 
0.1603100635413823

>  <metric>  (3) 
combo

>  <metric_score>  (3) 
0.315

>  <template_pid>  (3) 
3U7L

>  <template_shape_score>  (3) 
0.470

>  <template_color_score>  (3) 
0.160

>  <template_combo_score>  (3) 
0.315

$$$$
