5ICX_shape_pose
     RDKit          3D

 97 98  0  0  0  0  0  0  0  0999 V2000
   -6.0107   43.9815   10.4152 C   0  0  0  0  0  0  0  0  0  0  0  0
   -7.2187   44.1562   11.2844 C   0  0  0  0  0  0  0  0  0  0  0  0
   -7.2405   45.5769   11.8838 C   0  0  0  0  0  0  0  0  0  0  0  0
   -7.3916   43.2187   12.4081 C   0  0  0  0  0  0  0  0  0  0  0  0
   -7.5520   41.7593   12.1190 C   0  0  2  0  0  0  0  0  0  0  0  0
   -6.4172   41.2119   11.4367 N   0  0  0  0  0  0  0  0  0  0  0  0
   -5.6976   40.1772   12.1577 C   0  0  0  0  0  0  0  0  0  0  0  0
   -6.1113   39.9363   13.2767 O   0  0  0  0  0  0  0  0  0  0  0  0
   -4.5348   39.4165   11.6360 C   0  0  2  0  0  0  0  0  0  0  0  0
   -4.8485   38.8772   10.2538 C   0  0  0  0  0  0  0  0  0  0  0  0
   -3.6991   38.1058    9.6706 C   0  0  0  0  0  0  0  0  0  0  0  0
   -2.4469   38.8787    9.4616 C   0  0  0  0  0  0  0  0  0  0  0  0
   -2.4932   40.0137    8.6084 N   0  0  0  0  0  0  0  0  0  0  0  0
   -2.7574   40.0381    7.2263 C   0  0  0  0  0  0  0  0  0  0  0  0
   -2.7429   41.3229    6.5646 N   0  0  0  0  0  0  0  0  0  0  0  0
   -2.9963   38.9811    6.5457 N   0  0  0  0  0  0  0  0  0  0  0  0
   -4.3938   38.3050   12.5972 N   0  0  0  0  0  0  0  0  0  0  0  0
   -3.2283   37.8410   13.2245 C   0  0  0  0  0  0  0  0  0  0  0  0
   -2.1754   38.4241   12.9506 O   0  0  0  0  0  0  0  0  0  0  0  0
   -3.1568   36.6993   14.1905 C   0  0  2  0  0  0  0  0  0  0  0  0
   -2.4377   35.5006   13.5776 C   0  0  0  0  0  0  0  0  0  0  0  0
   -1.0337   35.8359   13.1904 C   0  0  0  0  0  0  0  0  0  0  0  0
   -0.1527   36.3056   14.3081 C   0  0  0  0  0  0  0  0  0  0  0  0
    0.0329   35.3663   15.3711 N   0  0  0  0  0  0  0  0  0  0  0  0
    0.8487   35.6997   16.4948 C   0  0  0  0  0  0  0  0  0  0  0  0
    1.0456   34.7797   17.5609 N   0  0  0  0  0  0  0  0  0  0  0  0
    1.4291   36.8578   16.5629 N   0  0  0  0  0  0  0  0  0  0  0  0
   -4.4688   36.3321   14.5895 N   0  0  0  0  0  0  0  0  0  0  0  0
   -4.8076   35.8514   15.9367 C   0  0  0  0  0  0  0  0  0  0  0  0
   -3.8503   35.5196   16.6035 O   0  0  0  0  0  0  0  0  0  0  0  0
   -6.2272   35.8566   16.2169 C   0  0  2  0  0  0  0  0  0  0  0  0
   -6.3057   37.4221   16.7248 C   0  0  1  0  0  0  0  0  0  0  0  0
   -5.2798   37.4229   17.8493 C   0  0  0  0  0  0  0  0  0  0  0  0
   -5.8440   38.0820   15.6202 O   0  0  0  0  0  0  0  0  0  0  0  0
   -6.7947   35.2620   17.3957 N   0  0  0  0  0  0  0  0  0  0  0  0
   -8.1953   35.4647   17.5057 C   0  0  0  0  0  0  0  0  0  0  0  0
   -8.6955   36.0797   16.4780 O   0  0  0  0  0  0  0  0  0  0  0  0
   -9.1850   35.1406   18.5137 C   0  0  2  0  0  0  0  0  0  0  0  0
   -9.7767   33.7361   18.2523 C   0  0  0  0  0  0  0  0  0  0  0  0
   -8.7289   32.8522   18.5179 O   0  0  0  0  0  0  0  0  0  0  0  0
  -10.2428   36.1377   18.2482 N   0  0  0  0  0  0  0  0  0  0  0  0
  -11.2866   36.5119   19.1421 C   0  0  0  0  0  0  0  0  0  0  0  0
  -11.4283   35.8167   20.1354 O   0  0  0  0  0  0  0  0  0  0  0  0
  -12.0758   37.6986   18.7273 C   0  0  2  0  0  0  0  0  0  0  0  0
  -12.9461   37.3329   17.5467 C   0  0  0  0  0  0  0  0  0  0  0  0
  -13.9352   36.2719   17.8483 C   0  0  0  0  0  0  0  0  0  0  0  0
  -13.4779   34.9208   18.2618 C   0  0  0  0  0  0  0  0  0  0  0  0
  -14.8371   36.0390   16.6019 C   0  0  0  0  0  0  0  0  0  0  0  0
  -11.1347   38.7613   18.3274 N   0  0  0  0  0  0  0  0  0  0  0  0
  -11.0914   39.5274   17.1637 C   0  0  0  0  0  0  0  0  0  0  0  0
  -11.8723   39.2547   16.2595 O   0  0  0  0  0  0  0  0  0  0  0  0
  -10.0583   40.6434   17.0789 C   0  0  2  0  0  0  0  0  0  0  0  0
   -8.6979   39.8861   16.9993 C   0  0  0  0  0  0  0  0  0  0  0  0
   -7.5315   40.7676   16.9574 C   0  0  0  0  0  0  0  0  0  0  0  0
   -6.9246   40.9157   18.0833 O   0  0  0  0  0  0  0  0  0  0  0  0
   -7.0982   41.3998   15.8068 O   0  0  0  0  0  0  0  0  0  0  0  0
   -9.9448   41.4059   18.2987 N   0  0  0  0  0  0  0  0  0  0  0  0
   -9.5848   42.8226   18.2579 C   0  0  0  0  0  0  0  0  0  0  0  0
   -9.1921   43.1937   17.1487 O   0  0  0  0  0  0  0  0  0  0  0  0
   -9.6471   43.7450   19.3720 C   0  0  2  0  0  0  0  0  0  0  0  0
   -8.2853   44.2047   19.8400 C   0  0  0  0  0  0  0  0  0  0  0  0
   -7.5534   44.9510   18.8143 C   0  0  0  0  0  0  0  0  0  0  0  0
   -6.6460   44.4678   17.9189 C   0  0  0  0  0  0  0  0  0  0  0  0
   -6.0297   45.2659   16.9689 C   0  0  0  0  0  0  0  0  0  0  0  0
   -6.3110   46.6257   16.8812 C   0  0  0  0  0  0  0  0  0  0  0  0
   -7.2270   47.1145   17.7853 C   0  0  0  0  0  0  0  0  0  0  0  0
   -7.8331   46.3238   18.7210 C   0  0  0  0  0  0  0  0  0  0  0  0
  -10.4391   43.2202   20.4487 N   0  0  0  0  0  0  0  0  0  0  0  0
  -11.1375   44.1735   21.2950 C   0  0  0  0  0  0  0  0  0  0  0  0
  -10.8078   45.3414   21.1636 O   0  0  0  0  0  0  0  0  0  0  0  0
  -12.1985   43.6912   22.2853 C   0  0  2  0  0  0  0  0  0  0  0  0
  -11.4354   43.4120   23.5400 C   0  0  0  0  0  0  0  0  0  0  0  0
  -12.2711   42.9296   24.7004 C   0  0  0  0  0  0  0  0  0  0  0  0
  -11.4191   42.7016   25.8976 C   0  0  0  0  0  0  0  0  0  0  0  0
  -11.9939   42.4053   27.1775 N   0  0  0  0  0  0  0  0  0  0  0  0
  -10.1616   42.7532   25.8656 O   0  0  0  0  0  0  0  0  0  0  0  0
  -12.6487   42.4258   21.7026 N   0  0  0  0  0  0  0  0  0  0  0  0
  -13.9438   42.4508   21.0397 C   0  0  0  0  0  0  0  0  0  0  0  0
  -14.6015   43.4637   21.1850 O   0  0  0  0  0  0  0  0  0  0  0  0
  -14.3821   41.2391   20.2295 C   0  0  1  0  0  0  0  0  0  0  0  0
  -15.6394   41.5457   19.6269 N   0  0  0  0  0  0  0  0  0  0  0  0
  -13.3352   41.1893   19.0635 C   0  0  0  0  0  0  0  0  0  0  0  0
  -13.4641   42.6834   18.0471 S   0  0  0  0  0  0  0  0  0  0  0  0
  -15.0388   42.4937   16.5908 S   0  0  0  0  0  0  0  0  0  0  0  0
  -14.2781   41.8728   15.0351 C   0  0  0  0  0  0  0  0  0  0  0  0
  -13.5540   43.0373   14.3176 C   0  0  1  0  0  0  0  0  0  0  0  0
  -12.9138   43.8799   15.3745 C   0  0  0  0  0  0  0  0  0  0  0  0
  -11.6897   43.8662   15.6162 O   0  0  0  0  0  0  0  0  0  0  0  0
  -13.7992   44.7046   16.0899 O   0  0  0  0  0  0  0  0  0  0  0  0
  -12.4883   42.4242   13.5320 N   0  0  0  0  0  0  0  0  0  0  0  0
  -12.5083   42.1333   12.1541 C   0  0  0  0  0  0  0  0  0  0  0  0
  -13.5764   42.3689   11.5663 O   0  0  0  0  0  0  0  0  0  0  0  0
  -11.3814   41.5701   11.3777 C   0  0  2  0  0  0  0  0  0  0  0  0
  -11.6425   40.0196   11.3976 C   0  0  0  0  0  0  0  0  0  0  0  0
  -10.1150   41.6830   12.0732 N   0  0  0  0  0  0  0  0  0  0  0  0
   -8.8472   41.5601   11.3669 C   0  0  0  0  0  0  0  0  0  0  0  0
   -8.9464   41.2845   10.1810 O   0  0  0  0  0  0  0  0  0  0  0  0
  1  2  1  0
  2  3  1  0
  2  4  1  0
  5  4  1  6
  5  6  1  0
  6  7  1  0
  7  8  2  0
  7  9  1  0
  9 10  1  6
 10 11  1  0
 11 12  1  0
 12 13  1  0
 13 14  1  0
 14 15  1  0
 14 16  2  0
  9 17  1  0
 17 18  1  0
 18 19  2  0
 18 20  1  0
 20 21  1  6
 21 22  1  0
 22 23  1  0
 23 24  1  0
 24 25  1  0
 25 26  1  0
 25 27  2  0
 20 28  1  0
 28 29  1  0
 29 30  2  0
 29 31  1  0
 31 32  1  0
 32 33  1  1
 32 34  1  0
 31 35  1  1
 35 36  1  0
 36 37  2  0
 36 38  1  0
 38 39  1  6
 39 40  1  0
 38 41  1  0
 41 42  1  0
 42 43  2  0
 42 44  1  0
 44 45  1  6
 45 46  1  0
 46 47  1  0
 46 48  1  0
 44 49  1  0
 49 50  1  0
 50 51  2  0
 50 52  1  0
 52 53  1  1
 53 54  1  0
 54 55  2  0
 54 56  1  0
 52 57  1  0
 57 58  1  0
 58 59  2  0
 58 60  1  0
 60 61  1  1
 61 62  1  0
 62 63  2  0
 63 64  1  0
 64 65  2  0
 65 66  1  0
 66 67  2  0
 60 68  1  0
 68 69  1  0
 69 70  2  0
 69 71  1  0
 71 72  1  1
 72 73  1  0
 73 74  1  0
 74 75  1  0
 74 76  2  0
 71 77  1  0
 77 78  1  0
 78 79  2  0
 78 80  1  0
 80 81  1  6
 80 82  1  0
 82 83  1  0
 83 84  1  0
 84 85  1  0
 85 86  1  0
 86 87  1  1
 87 88  2  0
 87 89  1  0
 86 90  1  0
 90 91  1  0
 91 92  2  0
 91 93  1  0
 93 94  1  1
 93 95  1  0
 95 96  1  0
 96 97  2  0
 96  5  1  0
 67 62  1  0
M  CHG  5  16   1  27   1  56  -1  81   1  89  -1
M  END
>  <shape_align_shape_tanimoto>  (1) 
0.26640072221084238

>  <shape_align_color_tanimoto>  (1) 
0.01139157253449719

>  <metric>  (1) 
shape

>  <metric_score>  (1) 
0.266

>  <template_pid>  (1) 
5ICX

>  <template_shape_score>  (1) 
0.266

>  <template_color_score>  (1) 
0.011

>  <template_combo_score>  (1) 
0.139

$$$$
5ICX_color_pose
     RDKit          3D

 97 98  0  0  0  0  0  0  0  0999 V2000
  -12.0145   36.1213   17.5065 C   0  0  0  0  0  0  0  0  0  0  0  0
  -12.6463   37.1338   18.4356 C   0  0  0  0  0  0  0  0  0  0  0  0
  -12.8512   36.3947   19.7651 C   0  0  0  0  0  0  0  0  0  0  0  0
  -11.8039   38.3299   18.6654 C   0  0  0  0  0  0  0  0  0  0  0  0
  -11.4464   39.1427   17.4668 C   0  0  2  0  0  0  0  0  0  0  0  0
  -10.6266   40.2652   17.8843 N   0  0  0  0  0  0  0  0  0  0  0  0
   -9.4109   40.6312   17.1929 C   0  0  0  0  0  0  0  0  0  0  0  0
   -9.1891   39.9313   16.1878 O   0  0  0  0  0  0  0  0  0  0  0  0
   -8.5286   41.7269   17.6297 C   0  0  2  0  0  0  0  0  0  0  0  0
   -7.0852   41.2677   17.8000 C   0  0  0  0  0  0  0  0  0  0  0  0
   -6.2037   42.4274   18.2191 C   0  0  0  0  0  0  0  0  0  0  0  0
   -4.7579   42.0202   18.4372 C   0  0  0  0  0  0  0  0  0  0  0  0
   -4.1639   41.4174   17.2594 N   0  0  0  0  0  0  0  0  0  0  0  0
   -2.8113   40.9758   17.3846 C   0  0  0  0  0  0  0  0  0  0  0  0
   -2.1456   40.3536   16.2748 N   0  0  0  0  0  0  0  0  0  0  0  0
   -2.1287   41.0920   18.4678 N   0  0  0  0  0  0  0  0  0  0  0  0
   -9.0285   42.1023   18.9487 N   0  0  0  0  0  0  0  0  0  0  0  0
   -9.2630   43.4848   19.3213 C   0  0  0  0  0  0  0  0  0  0  0  0
   -8.9997   44.2641   18.3942 O   0  0  0  0  0  0  0  0  0  0  0  0
   -9.7562   43.8579   20.6660 C   0  0  2  0  0  0  0  0  0  0  0  0
   -8.8991   44.8252   21.3795 C   0  0  0  0  0  0  0  0  0  0  0  0
   -8.6923   46.1658   20.8428 C   0  0  0  0  0  0  0  0  0  0  0  0
   -9.8221   47.1068   20.7448 C   0  0  0  0  0  0  0  0  0  0  0  0
  -10.8729   46.7536   19.8761 N   0  0  0  0  0  0  0  0  0  0  0  0
  -10.8514   46.7822   18.4499 C   0  0  0  0  0  0  0  0  0  0  0  0
  -12.0296   46.3812   17.7181 N   0  0  0  0  0  0  0  0  0  0  0  0
   -9.8179   47.1578   17.8015 N   0  0  0  0  0  0  0  0  0  0  0  0
   -9.8772   42.6076   21.4426 N   0  0  0  0  0  0  0  0  0  0  0  0
  -11.0982   42.2702   22.1233 C   0  0  0  0  0  0  0  0  0  0  0  0
  -11.9946   43.1253   22.0020 O   0  0  0  0  0  0  0  0  0  0  0  0
  -11.3186   41.0553   22.9046 C   0  0  2  0  0  0  0  0  0  0  0  0
  -11.4910   41.4441   24.3915 C   0  0  1  0  0  0  0  0  0  0  0  0
  -10.2526   42.0395   24.9695 C   0  0  0  0  0  0  0  0  0  0  0  0
  -12.4878   42.4196   24.3976 O   0  0  0  0  0  0  0  0  0  0  0  0
  -10.2836   40.0367   22.8036 N   0  0  0  0  0  0  0  0  0  0  0  0
  -10.6232   38.6328   22.9526 C   0  0  0  0  0  0  0  0  0  0  0  0
  -11.8149   38.4338   23.2266 O   0  0  0  0  0  0  0  0  0  0  0  0
   -9.6585   37.5401   22.8035 C   0  0  2  0  0  0  0  0  0  0  0  0
   -9.3768   36.8154   24.1207 C   0  0  0  0  0  0  0  0  0  0  0  0
   -8.7811   37.6880   25.0402 O   0  0  0  0  0  0  0  0  0  0  0  0
   -8.3753   38.0357   22.2523 N   0  0  0  0  0  0  0  0  0  0  0  0
   -7.9017   37.5830   21.0148 C   0  0  0  0  0  0  0  0  0  0  0  0
   -8.7102   36.7330   20.4697 O   0  0  0  0  0  0  0  0  0  0  0  0
   -6.7126   37.8906   20.2393 C   0  0  2  0  0  0  0  0  0  0  0  0
   -5.8626   38.9919   20.7208 C   0  0  0  0  0  0  0  0  0  0  0  0
   -5.2312   38.6415   22.0525 C   0  0  0  0  0  0  0  0  0  0  0  0
   -4.3484   37.3934   21.8921 C   0  0  0  0  0  0  0  0  0  0  0  0
   -4.3066   39.7516   22.5329 C   0  0  0  0  0  0  0  0  0  0  0  0
   -6.9557   37.7514   18.8216 N   0  0  0  0  0  0  0  0  0  0  0  0
   -6.0527   37.9582   17.7494 C   0  0  0  0  0  0  0  0  0  0  0  0
   -4.9438   38.3949   18.0458 O   0  0  0  0  0  0  0  0  0  0  0  0
   -6.5345   37.6490   16.3825 C   0  0  2  0  0  0  0  0  0  0  0  0
   -6.0993   36.2059   15.9973 C   0  0  0  0  0  0  0  0  0  0  0  0
   -4.6359   36.0677   16.0029 C   0  0  0  0  0  0  0  0  0  0  0  0
   -3.8048   36.9541   16.2339 O   0  0  0  0  0  0  0  0  0  0  0  0
   -4.1293   34.7896   15.7149 O   0  0  0  0  0  0  0  0  0  0  0  0
   -5.9576   38.5393   15.3589 N   0  0  0  0  0  0  0  0  0  0  0  0
   -6.7752   38.7712   14.2321 C   0  0  0  0  0  0  0  0  0  0  0  0
   -7.8126   38.0678   14.1597 O   0  0  0  0  0  0  0  0  0  0  0  0
   -6.5587   39.7314   13.1239 C   0  0  2  0  0  0  0  0  0  0  0  0
   -6.7840   41.1492   13.6966 C   0  0  0  0  0  0  0  0  0  0  0  0
   -6.6226   42.2209   12.7243 C   0  0  0  0  0  0  0  0  0  0  0  0
   -7.7071   42.7868   12.0357 C   0  0  0  0  0  0  0  0  0  0  0  0
   -7.4564   43.7834   11.1201 C   0  0  0  0  0  0  0  0  0  0  0  0
   -6.1900   44.2581   10.8442 C   0  0  0  0  0  0  0  0  0  0  0  0
   -5.1394   43.6942   11.5290 C   0  0  0  0  0  0  0  0  0  0  0  0
   -5.3304   42.6789   12.4685 C   0  0  0  0  0  0  0  0  0  0  0  0
   -7.5334   39.5050   12.0788 N   0  0  0  0  0  0  0  0  0  0  0  0
   -7.4051   39.8505   10.7136 C   0  0  0  0  0  0  0  0  0  0  0  0
   -6.4090   40.4852   10.3794 O   0  0  0  0  0  0  0  0  0  0  0  0
   -8.5028   39.4354    9.7588 C   0  0  2  0  0  0  0  0  0  0  0  0
   -7.8095   38.4749    8.7811 C   0  0  0  0  0  0  0  0  0  0  0  0
   -8.7435   37.9495    7.7468 C   0  0  0  0  0  0  0  0  0  0  0  0
   -7.9910   37.0506    6.8441 C   0  0  0  0  0  0  0  0  0  0  0  0
   -8.7333   36.4516    5.7596 N   0  0  0  0  0  0  0  0  0  0  0  0
   -6.7718   36.7824    6.9574 O   0  0  0  0  0  0  0  0  0  0  0  0
   -8.9654   40.5419    8.9421 N   0  0  0  0  0  0  0  0  0  0  0  0
  -10.3803   40.6639    8.8231 C   0  0  0  0  0  0  0  0  0  0  0  0
  -11.0494   39.7549    9.3371 O   0  0  0  0  0  0  0  0  0  0  0  0
  -11.1039   41.7625    8.1491 C   0  0  1  0  0  0  0  0  0  0  0  0
  -12.5201   41.4172    8.1122 N   0  0  0  0  0  0  0  0  0  0  0  0
  -10.9509   43.0175    9.0531 C   0  0  0  0  0  0  0  0  0  0  0  0
  -11.4585   42.5665   10.7319 S   0  0  0  0  0  0  0  0  0  0  0  0
  -13.4856   42.0894   10.9223 S   0  0  0  0  0  0  0  0  0  0  0  0
  -14.5092   43.5099   11.3505 C   0  0  0  0  0  0  0  0  0  0  0  0
  -14.1867   44.0139   12.7502 C   0  0  1  0  0  0  0  0  0  0  0  0
  -15.0943   45.2049   12.9402 C   0  0  0  0  0  0  0  0  0  0  0  0
  -14.8724   46.2680   12.3109 O   0  0  0  0  0  0  0  0  0  0  0  0
  -16.1813   45.1575   13.8011 O   0  0  0  0  0  0  0  0  0  0  0  0
  -14.5635   43.0750   13.7871 N   0  0  0  0  0  0  0  0  0  0  0  0
  -13.6023   42.5264   14.7216 C   0  0  0  0  0  0  0  0  0  0  0  0
  -12.4424   42.9255   14.5238 O   0  0  0  0  0  0  0  0  0  0  0  0
  -13.9952   41.5822   15.7936 C   0  0  2  0  0  0  0  0  0  0  0  0
  -15.0104   42.2311   16.7384 C   0  0  0  0  0  0  0  0  0  0  0  0
  -12.8399   41.1135   16.5508 N   0  0  0  0  0  0  0  0  0  0  0  0
  -12.6130   39.7009   16.7388 C   0  0  0  0  0  0  0  0  0  0  0  0
  -13.4834   38.9739   16.2385 O   0  0  0  0  0  0  0  0  0  0  0  0
  1  2  1  0
  2  3  1  0
  2  4  1  0
  5  4  1  1
  5  6  1  0
  6  7  1  0
  7  8  2  0
  7  9  1  0
  9 10  1  1
 10 11  1  0
 11 12  1  0
 12 13  1  0
 13 14  1  0
 14 15  1  0
 14 16  2  0
  9 17  1  0
 17 18  1  0
 18 19  2  0
 18 20  1  0
 20 21  1  1
 21 22  1  0
 22 23  1  0
 23 24  1  0
 24 25  1  0
 25 26  1  0
 25 27  2  0
 20 28  1  0
 28 29  1  0
 29 30  2  0
 29 31  1  0
 31 32  1  0
 32 33  1  6
 32 34  1  0
 31 35  1  1
 35 36  1  0
 36 37  2  0
 36 38  1  0
 38 39  1  1
 39 40  1  0
 38 41  1  0
 41 42  1  0
 42 43  2  0
 42 44  1  0
 44 45  1  6
 45 46  1  0
 46 47  1  0
 46 48  1  0
 44 49  1  0
 49 50  1  0
 50 51  2  0
 50 52  1  0
 52 53  1  6
 53 54  1  0
 54 55  2  0
 54 56  1  0
 52 57  1  0
 57 58  1  0
 58 59  2  0
 58 60  1  0
 60 61  1  1
 61 62  1  0
 62 63  2  0
 63 64  1  0
 64 65  2  0
 65 66  1  0
 66 67  2  0
 60 68  1  0
 68 69  1  0
 69 70  2  0
 69 71  1  0
 71 72  1  6
 72 73  1  0
 73 74  1  0
 74 75  1  0
 74 76  2  0
 71 77  1  0
 77 78  1  0
 78 79  2  0
 78 80  1  0
 80 81  1  1
 80 82  1  0
 82 83  1  0
 83 84  1  0
 84 85  1  0
 85 86  1  0
 86 87  1  1
 87 88  2  0
 87 89  1  0
 86 90  1  0
 90 91  1  0
 91 92  2  0
 91 93  1  0
 93 94  1  1
 93 95  1  0
 95 96  1  0
 96 97  2  0
 96  5  1  0
 67 62  1  0
M  CHG  5  16   1  27   1  56  -1  81   1  89  -1
M  END
>  <shape_align_shape_tanimoto>  (2) 
0.25773983716438781

>  <shape_align_color_tanimoto>  (2) 
0.04168716901411277

>  <metric>  (2) 
color

>  <metric_score>  (2) 
0.042

>  <template_pid>  (2) 
5ICX

>  <template_shape_score>  (2) 
0.258

>  <template_color_score>  (2) 
0.042

>  <template_combo_score>  (2) 
0.150

$$$$
5ICX_combo_pose
     RDKit          3D

 97 98  0  0  0  0  0  0  0  0999 V2000
  -12.0145   36.1213   17.5065 C   0  0  0  0  0  0  0  0  0  0  0  0
  -12.6463   37.1338   18.4356 C   0  0  0  0  0  0  0  0  0  0  0  0
  -12.8512   36.3947   19.7651 C   0  0  0  0  0  0  0  0  0  0  0  0
  -11.8039   38.3299   18.6654 C   0  0  0  0  0  0  0  0  0  0  0  0
  -11.4464   39.1427   17.4668 C   0  0  2  0  0  0  0  0  0  0  0  0
  -10.6266   40.2652   17.8843 N   0  0  0  0  0  0  0  0  0  0  0  0
   -9.4109   40.6312   17.1929 C   0  0  0  0  0  0  0  0  0  0  0  0
   -9.1891   39.9313   16.1878 O   0  0  0  0  0  0  0  0  0  0  0  0
   -8.5286   41.7269   17.6297 C   0  0  2  0  0  0  0  0  0  0  0  0
   -7.0852   41.2677   17.8000 C   0  0  0  0  0  0  0  0  0  0  0  0
   -6.2037   42.4274   18.2191 C   0  0  0  0  0  0  0  0  0  0  0  0
   -4.7579   42.0202   18.4372 C   0  0  0  0  0  0  0  0  0  0  0  0
   -4.1639   41.4174   17.2594 N   0  0  0  0  0  0  0  0  0  0  0  0
   -2.8113   40.9758   17.3846 C   0  0  0  0  0  0  0  0  0  0  0  0
   -2.1456   40.3536   16.2748 N   0  0  0  0  0  0  0  0  0  0  0  0
   -2.1287   41.0920   18.4678 N   0  0  0  0  0  0  0  0  0  0  0  0
   -9.0285   42.1023   18.9487 N   0  0  0  0  0  0  0  0  0  0  0  0
   -9.2630   43.4848   19.3213 C   0  0  0  0  0  0  0  0  0  0  0  0
   -8.9997   44.2641   18.3942 O   0  0  0  0  0  0  0  0  0  0  0  0
   -9.7562   43.8579   20.6660 C   0  0  2  0  0  0  0  0  0  0  0  0
   -8.8991   44.8252   21.3795 C   0  0  0  0  0  0  0  0  0  0  0  0
   -8.6923   46.1658   20.8428 C   0  0  0  0  0  0  0  0  0  0  0  0
   -9.8221   47.1068   20.7448 C   0  0  0  0  0  0  0  0  0  0  0  0
  -10.8729   46.7536   19.8761 N   0  0  0  0  0  0  0  0  0  0  0  0
  -10.8514   46.7822   18.4499 C   0  0  0  0  0  0  0  0  0  0  0  0
  -12.0296   46.3812   17.7181 N   0  0  0  0  0  0  0  0  0  0  0  0
   -9.8179   47.1578   17.8015 N   0  0  0  0  0  0  0  0  0  0  0  0
   -9.8772   42.6076   21.4426 N   0  0  0  0  0  0  0  0  0  0  0  0
  -11.0982   42.2702   22.1233 C   0  0  0  0  0  0  0  0  0  0  0  0
  -11.9946   43.1253   22.0020 O   0  0  0  0  0  0  0  0  0  0  0  0
  -11.3186   41.0553   22.9046 C   0  0  2  0  0  0  0  0  0  0  0  0
  -11.4910   41.4441   24.3915 C   0  0  1  0  0  0  0  0  0  0  0  0
  -10.2526   42.0395   24.9695 C   0  0  0  0  0  0  0  0  0  0  0  0
  -12.4878   42.4196   24.3976 O   0  0  0  0  0  0  0  0  0  0  0  0
  -10.2836   40.0367   22.8036 N   0  0  0  0  0  0  0  0  0  0  0  0
  -10.6232   38.6328   22.9526 C   0  0  0  0  0  0  0  0  0  0  0  0
  -11.8149   38.4338   23.2266 O   0  0  0  0  0  0  0  0  0  0  0  0
   -9.6585   37.5401   22.8035 C   0  0  2  0  0  0  0  0  0  0  0  0
   -9.3768   36.8154   24.1207 C   0  0  0  0  0  0  0  0  0  0  0  0
   -8.7811   37.6880   25.0402 O   0  0  0  0  0  0  0  0  0  0  0  0
   -8.3753   38.0357   22.2523 N   0  0  0  0  0  0  0  0  0  0  0  0
   -7.9017   37.5830   21.0148 C   0  0  0  0  0  0  0  0  0  0  0  0
   -8.7102   36.7330   20.4697 O   0  0  0  0  0  0  0  0  0  0  0  0
   -6.7126   37.8906   20.2393 C   0  0  2  0  0  0  0  0  0  0  0  0
   -5.8626   38.9919   20.7208 C   0  0  0  0  0  0  0  0  0  0  0  0
   -5.2312   38.6415   22.0525 C   0  0  0  0  0  0  0  0  0  0  0  0
   -4.3484   37.3934   21.8921 C   0  0  0  0  0  0  0  0  0  0  0  0
   -4.3066   39.7516   22.5329 C   0  0  0  0  0  0  0  0  0  0  0  0
   -6.9557   37.7514   18.8216 N   0  0  0  0  0  0  0  0  0  0  0  0
   -6.0527   37.9582   17.7494 C   0  0  0  0  0  0  0  0  0  0  0  0
   -4.9438   38.3949   18.0458 O   0  0  0  0  0  0  0  0  0  0  0  0
   -6.5345   37.6490   16.3825 C   0  0  2  0  0  0  0  0  0  0  0  0
   -6.0993   36.2059   15.9973 C   0  0  0  0  0  0  0  0  0  0  0  0
   -4.6359   36.0677   16.0029 C   0  0  0  0  0  0  0  0  0  0  0  0
   -3.8048   36.9541   16.2339 O   0  0  0  0  0  0  0  0  0  0  0  0
   -4.1293   34.7896   15.7149 O   0  0  0  0  0  0  0  0  0  0  0  0
   -5.9576   38.5393   15.3589 N   0  0  0  0  0  0  0  0  0  0  0  0
   -6.7752   38.7712   14.2321 C   0  0  0  0  0  0  0  0  0  0  0  0
   -7.8126   38.0678   14.1597 O   0  0  0  0  0  0  0  0  0  0  0  0
   -6.5587   39.7314   13.1239 C   0  0  2  0  0  0  0  0  0  0  0  0
   -6.7840   41.1492   13.6966 C   0  0  0  0  0  0  0  0  0  0  0  0
   -6.6226   42.2209   12.7243 C   0  0  0  0  0  0  0  0  0  0  0  0
   -7.7071   42.7868   12.0357 C   0  0  0  0  0  0  0  0  0  0  0  0
   -7.4564   43.7834   11.1201 C   0  0  0  0  0  0  0  0  0  0  0  0
   -6.1900   44.2581   10.8442 C   0  0  0  0  0  0  0  0  0  0  0  0
   -5.1394   43.6942   11.5290 C   0  0  0  0  0  0  0  0  0  0  0  0
   -5.3304   42.6789   12.4685 C   0  0  0  0  0  0  0  0  0  0  0  0
   -7.5334   39.5050   12.0788 N   0  0  0  0  0  0  0  0  0  0  0  0
   -7.4051   39.8505   10.7136 C   0  0  0  0  0  0  0  0  0  0  0  0
   -6.4090   40.4852   10.3794 O   0  0  0  0  0  0  0  0  0  0  0  0
   -8.5028   39.4354    9.7588 C   0  0  2  0  0  0  0  0  0  0  0  0
   -7.8095   38.4749    8.7811 C   0  0  0  0  0  0  0  0  0  0  0  0
   -8.7435   37.9495    7.7468 C   0  0  0  0  0  0  0  0  0  0  0  0
   -7.9910   37.0506    6.8441 C   0  0  0  0  0  0  0  0  0  0  0  0
   -8.7333   36.4516    5.7596 N   0  0  0  0  0  0  0  0  0  0  0  0
   -6.7718   36.7824    6.9574 O   0  0  0  0  0  0  0  0  0  0  0  0
   -8.9654   40.5419    8.9421 N   0  0  0  0  0  0  0  0  0  0  0  0
  -10.3803   40.6639    8.8231 C   0  0  0  0  0  0  0  0  0  0  0  0
  -11.0494   39.7549    9.3371 O   0  0  0  0  0  0  0  0  0  0  0  0
  -11.1039   41.7625    8.1491 C   0  0  1  0  0  0  0  0  0  0  0  0
  -12.5201   41.4172    8.1122 N   0  0  0  0  0  0  0  0  0  0  0  0
  -10.9509   43.0175    9.0531 C   0  0  0  0  0  0  0  0  0  0  0  0
  -11.4585   42.5665   10.7319 S   0  0  0  0  0  0  0  0  0  0  0  0
  -13.4856   42.0894   10.9223 S   0  0  0  0  0  0  0  0  0  0  0  0
  -14.5092   43.5099   11.3505 C   0  0  0  0  0  0  0  0  0  0  0  0
  -14.1867   44.0139   12.7502 C   0  0  1  0  0  0  0  0  0  0  0  0
  -15.0943   45.2049   12.9402 C   0  0  0  0  0  0  0  0  0  0  0  0
  -14.8724   46.2680   12.3109 O   0  0  0  0  0  0  0  0  0  0  0  0
  -16.1813   45.1575   13.8011 O   0  0  0  0  0  0  0  0  0  0  0  0
  -14.5635   43.0750   13.7871 N   0  0  0  0  0  0  0  0  0  0  0  0
  -13.6023   42.5264   14.7216 C   0  0  0  0  0  0  0  0  0  0  0  0
  -12.4424   42.9255   14.5238 O   0  0  0  0  0  0  0  0  0  0  0  0
  -13.9952   41.5822   15.7936 C   0  0  2  0  0  0  0  0  0  0  0  0
  -15.0104   42.2311   16.7384 C   0  0  0  0  0  0  0  0  0  0  0  0
  -12.8399   41.1135   16.5508 N   0  0  0  0  0  0  0  0  0  0  0  0
  -12.6130   39.7009   16.7388 C   0  0  0  0  0  0  0  0  0  0  0  0
  -13.4834   38.9739   16.2385 O   0  0  0  0  0  0  0  0  0  0  0  0
  1  2  1  0
  2  3  1  0
  2  4  1  0
  5  4  1  1
  5  6  1  0
  6  7  1  0
  7  8  2  0
  7  9  1  0
  9 10  1  1
 10 11  1  0
 11 12  1  0
 12 13  1  0
 13 14  1  0
 14 15  1  0
 14 16  2  0
  9 17  1  0
 17 18  1  0
 18 19  2  0
 18 20  1  0
 20 21  1  1
 21 22  1  0
 22 23  1  0
 23 24  1  0
 24 25  1  0
 25 26  1  0
 25 27  2  0
 20 28  1  0
 28 29  1  0
 29 30  2  0
 29 31  1  0
 31 32  1  0
 32 33  1  6
 32 34  1  0
 31 35  1  1
 35 36  1  0
 36 37  2  0
 36 38  1  0
 38 39  1  1
 39 40  1  0
 38 41  1  0
 41 42  1  0
 42 43  2  0
 42 44  1  0
 44 45  1  6
 45 46  1  0
 46 47  1  0
 46 48  1  0
 44 49  1  0
 49 50  1  0
 50 51  2  0
 50 52  1  0
 52 53  1  6
 53 54  1  0
 54 55  2  0
 54 56  1  0
 52 57  1  0
 57 58  1  0
 58 59  2  0
 58 60  1  0
 60 61  1  1
 61 62  1  0
 62 63  2  0
 63 64  1  0
 64 65  2  0
 65 66  1  0
 66 67  2  0
 60 68  1  0
 68 69  1  0
 69 70  2  0
 69 71  1  0
 71 72  1  6
 72 73  1  0
 73 74  1  0
 74 75  1  0
 74 76  2  0
 71 77  1  0
 77 78  1  0
 78 79  2  0
 78 80  1  0
 80 81  1  1
 80 82  1  0
 82 83  1  0
 83 84  1  0
 84 85  1  0
 85 86  1  0
 86 87  1  1
 87 88  2  0
 87 89  1  0
 86 90  1  0
 90 91  1  0
 91 92  2  0
 91 93  1  0
 93 94  1  1
 93 95  1  0
 95 96  1  0
 96 97  2  0
 96  5  1  0
 67 62  1  0
M  CHG  5  16   1  27   1  56  -1  81   1  89  -1
M  END
>  <shape_align_shape_tanimoto>  (3) 
0.25773983716438781

>  <shape_align_color_tanimoto>  (3) 
0.04168716901411277

>  <metric>  (3) 
combo

>  <metric_score>  (3) 
0.150

>  <template_pid>  (3) 
5ICX

>  <template_shape_score>  (3) 
0.258

>  <template_color_score>  (3) 
0.042

>  <template_combo_score>  (3) 
0.150

$$$$
