6FCJ_shape_pose
     RDKit          3D

 20 22  0  0  0  0  0  0  0  0999 V2000
    3.8857   16.4892   26.1937 O   0  0  0  0  0  0  0  0  0  0  0  0
    4.3731   15.3330   25.5982 C   0  0  0  0  0  0  0  0  0  0  0  0
    3.5429   14.4069   25.0144 C   0  0  0  0  0  0  0  0  0  0  0  0
    4.0819   13.2767   24.4378 C   0  0  0  0  0  0  0  0  0  0  0  0
    5.4368   13.0170   24.4128 C   0  0  0  0  0  0  0  0  0  0  0  0
    6.0500   11.8643   23.8303 C   0  0  0  0  0  0  0  0  0  0  0  0
    7.1841   11.9064   23.0166 C   0  0  0  0  0  0  0  0  0  0  0  0
    7.5186   10.6284   22.6199 C   0  0  0  0  0  0  0  0  0  0  0  0
    6.5862    9.8299   23.1961 N   0  0  0  0  0  0  0  0  0  0  0  0
    5.7346   10.5584   23.8994 N   0  0  0  0  0  0  0  0  0  0  0  0
    4.6453   10.0290   24.6215 C   0  0  0  0  0  0  0  0  0  0  0  0
    4.7861    9.8512   26.0008 C   0  0  0  0  0  0  0  0  0  0  0  0
    3.7413    9.3314   26.7653 C   0  0  0  0  0  0  0  0  0  0  0  0
    2.5527    8.9883   26.1501 C   0  0  0  0  0  0  0  0  0  0  0  0
    2.3974    9.1586   24.7830 C   0  0  0  0  0  0  0  0  0  0  0  0
    3.4362    9.6775   24.0101 C   0  0  0  0  0  0  0  0  0  0  0  0
    3.2562    9.9008   22.2707 Cl  0  0  0  0  0  0  0  0  0  0  0  0
    6.2657   13.9676   25.0100 C   0  0  0  0  0  0  0  0  0  0  0  0
    7.6304   13.7746   25.0227 O   0  0  0  0  0  0  0  0  0  0  0  0
    5.7226   15.0993   25.5872 C   0  0  0  0  0  0  0  0  0  0  0  0
  1  2  1  0
  2  3  2  0
  3  4  1  0
  4  5  2  0
  5  6  1  0
  6  7  2  0
  7  8  1  0
  8  9  2  0
  9 10  1  0
 10 11  1  0
 11 12  2  0
 12 13  1  0
 13 14  2  0
 14 15  1  0
 15 16  2  0
 16 17  1  0
  5 18  1  0
 18 19  1  0
 18 20  2  0
 20  2  1  0
 10  6  1  0
 16 11  1  0
M  END
>  <shape_align_shape_tanimoto>  (1) 
0.60875606720756148

>  <shape_align_color_tanimoto>  (1) 
0.13742029557733218

>  <metric>  (1) 
shape

>  <metric_score>  (1) 
0.609

>  <template_pid>  (1) 
6FCJ

>  <template_shape_score>  (1) 
0.609

>  <template_color_score>  (1) 
0.137

>  <template_combo_score>  (1) 
0.373

$$$$
6FCJ_color_pose
     RDKit          3D

 20 22  0  0  0  0  0  0  0  0999 V2000
    4.0314   16.4887   26.3034 O   0  0  0  0  0  0  0  0  0  0  0  0
    4.5952   15.3364   25.7413 C   0  0  0  0  0  0  0  0  0  0  0  0
    4.4229   14.0940   26.3435 C   0  0  0  0  0  0  0  0  0  0  0  0
    4.9804   12.9442   25.7904 C   0  0  0  0  0  0  0  0  0  0  0  0
    5.7156   13.0385   24.6262 C   0  0  0  0  0  0  0  0  0  0  0  0
    6.3357   11.8932   23.9750 C   0  0  0  0  0  0  0  0  0  0  0  0
    7.6250   11.8699   23.4787 C   0  0  0  0  0  0  0  0  0  0  0  0
    7.8812   10.6286   22.9301 C   0  0  0  0  0  0  0  0  0  0  0  0
    6.7486    9.9207   23.1012 N   0  0  0  0  0  0  0  0  0  0  0  0
    5.8328   10.6713   23.7207 N   0  0  0  0  0  0  0  0  0  0  0  0
    4.5209   10.2366   24.0589 C   0  0  0  0  0  0  0  0  0  0  0  0
    4.3990    9.3539   25.1292 C   0  0  0  0  0  0  0  0  0  0  0  0
    3.1794    8.8653   25.5478 C   0  0  0  0  0  0  0  0  0  0  0  0
    2.0510    9.2801   24.8660 C   0  0  0  0  0  0  0  0  0  0  0  0
    2.1631   10.1560   23.8026 C   0  0  0  0  0  0  0  0  0  0  0  0
    3.3928   10.6508   23.3779 C   0  0  0  0  0  0  0  0  0  0  0  0
    3.5409   11.7480   22.0471 Cl  0  0  0  0  0  0  0  0  0  0  0  0
    5.8773   14.2812   24.0402 C   0  0  0  0  0  0  0  0  0  0  0  0
    6.6132   14.4006   22.8681 O   0  0  0  0  0  0  0  0  0  0  0  0
    5.3400   15.4322   24.5617 C   0  0  0  0  0  0  0  0  0  0  0  0
  1  2  1  0
  2  3  2  0
  3  4  1  0
  4  5  2  0
  5  6  1  0
  6  7  2  0
  7  8  1  0
  8  9  2  0
  9 10  1  0
 10 11  1  0
 11 12  2  0
 12 13  1  0
 13 14  2  0
 14 15  1  0
 15 16  2  0
 16 17  1  0
  5 18  1  0
 18 19  1  0
 18 20  2  0
 20  2  1  0
 10  6  1  0
 16 11  1  0
M  END
>  <shape_align_shape_tanimoto>  (2) 
0.52292600847208837

>  <shape_align_color_tanimoto>  (2) 
0.14667560758918741

>  <metric>  (2) 
color

>  <metric_score>  (2) 
0.147

>  <template_pid>  (2) 
6FCJ

>  <template_shape_score>  (2) 
0.523

>  <template_color_score>  (2) 
0.147

>  <template_combo_score>  (2) 
0.335

$$$$
6FCJ_combo_pose
     RDKit          3D

 20 22  0  0  0  0  0  0  0  0999 V2000
    3.8857   16.4892   26.1937 O   0  0  0  0  0  0  0  0  0  0  0  0
    4.3731   15.3330   25.5982 C   0  0  0  0  0  0  0  0  0  0  0  0
    3.5429   14.4069   25.0144 C   0  0  0  0  0  0  0  0  0  0  0  0
    4.0819   13.2767   24.4378 C   0  0  0  0  0  0  0  0  0  0  0  0
    5.4368   13.0170   24.4128 C   0  0  0  0  0  0  0  0  0  0  0  0
    6.0500   11.8643   23.8303 C   0  0  0  0  0  0  0  0  0  0  0  0
    7.1841   11.9064   23.0166 C   0  0  0  0  0  0  0  0  0  0  0  0
    7.5186   10.6284   22.6199 C   0  0  0  0  0  0  0  0  0  0  0  0
    6.5862    9.8299   23.1961 N   0  0  0  0  0  0  0  0  0  0  0  0
    5.7346   10.5584   23.8994 N   0  0  0  0  0  0  0  0  0  0  0  0
    4.6453   10.0290   24.6215 C   0  0  0  0  0  0  0  0  0  0  0  0
    4.7861    9.8512   26.0008 C   0  0  0  0  0  0  0  0  0  0  0  0
    3.7413    9.3314   26.7653 C   0  0  0  0  0  0  0  0  0  0  0  0
    2.5527    8.9883   26.1501 C   0  0  0  0  0  0  0  0  0  0  0  0
    2.3974    9.1586   24.7830 C   0  0  0  0  0  0  0  0  0  0  0  0
    3.4362    9.6775   24.0101 C   0  0  0  0  0  0  0  0  0  0  0  0
    3.2562    9.9008   22.2707 Cl  0  0  0  0  0  0  0  0  0  0  0  0
    6.2657   13.9676   25.0100 C   0  0  0  0  0  0  0  0  0  0  0  0
    7.6304   13.7746   25.0227 O   0  0  0  0  0  0  0  0  0  0  0  0
    5.7226   15.0993   25.5872 C   0  0  0  0  0  0  0  0  0  0  0  0
  1  2  1  0
  2  3  2  0
  3  4  1  0
  4  5  2  0
  5  6  1  0
  6  7  2  0
  7  8  1  0
  8  9  2  0
  9 10  1  0
 10 11  1  0
 11 12  2  0
 12 13  1  0
 13 14  2  0
 14 15  1  0
 15 16  2  0
 16 17  1  0
  5 18  1  0
 18 19  1  0
 18 20  2  0
 20  2  1  0
 10  6  1  0
 16 11  1  0
M  END
>  <shape_align_shape_tanimoto>  (3) 
0.60875606720756148

>  <shape_align_color_tanimoto>  (3) 
0.13742029557733218

>  <metric>  (3) 
combo

>  <metric_score>  (3) 
0.373

>  <template_pid>  (3) 
6FCJ

>  <template_shape_score>  (3) 
0.609

>  <template_color_score>  (3) 
0.137

>  <template_combo_score>  (3) 
0.373

$$$$
