5ORX_shape_pose
     RDKit          3D

 16 17  0  0  0  0  0  0  0  0999 V2000
  -12.7178   12.9321  -14.5682 N   0  0  0  0  0  0  0  0  0  0  0  0
  -12.4232   13.6894  -15.7366 C   0  0  0  0  0  0  0  0  0  0  0  0
  -11.1143   13.7734  -16.1679 C   0  0  0  0  0  0  0  0  0  0  0  0
  -10.8833   14.5291  -17.3191 C   0  0  0  0  0  0  0  0  0  0  0  0
  -11.9160   15.1577  -17.9870 C   0  0  0  0  0  0  0  0  0  0  0  0
  -11.5851   15.8860  -19.1220 O   0  0  0  0  0  0  0  0  0  0  0  0
  -12.4562   16.5765  -19.9179 C   0  0  0  0  0  0  0  0  0  0  0  0
  -13.0359   15.9003  -20.9909 C   0  0  0  0  0  0  0  0  0  0  0  0
  -12.6545   14.2249  -21.2993 Cl  0  0  0  0  0  0  0  0  0  0  0  0
  -13.9185   16.5647  -21.8143 C   0  0  0  0  0  0  0  0  0  0  0  0
  -14.2665   17.8854  -21.6324 C   0  0  0  0  0  0  0  0  0  0  0  0
  -13.6943   18.5549  -20.5723 C   0  0  0  0  0  0  0  0  0  0  0  0
  -12.7995   17.8997  -19.7288 C   0  0  0  0  0  0  0  0  0  0  0  0
  -12.0618   18.7349  -18.3755 Cl  0  0  0  0  0  0  0  0  0  0  0  0
  -13.1799   15.0465  -17.5269 N   0  0  0  0  0  0  0  0  0  0  0  0
  -13.4543   14.3182  -16.4052 C   0  0  0  0  0  0  0  0  0  0  0  0
  1  2  1  0
  2  3  2  0
  3  4  1  0
  4  5  2  0
  5  6  1  0
  6  7  1  0
  7  8  2  0
  8  9  1  0
  8 10  1  0
 10 11  2  0
 11 12  1  0
 12 13  2  0
 13 14  1  0
  5 15  1  0
 15 16  2  0
 16  2  1  0
 13  7  1  0
M  END
>  <shape_align_shape_tanimoto>  (1) 
0.83867674573434348

>  <shape_align_color_tanimoto>  (1) 
0.024246378593799734

>  <metric>  (1) 
shape

>  <metric_score>  (1) 
0.839

>  <template_pid>  (1) 
5ORX

>  <template_shape_score>  (1) 
0.839

>  <template_color_score>  (1) 
0.024

>  <template_combo_score>  (1) 
0.431

$$$$
5ORX_color_pose
     RDKit          3D

 16 17  0  0  0  0  0  0  0  0999 V2000
  -12.5120   13.0457  -14.7560 N   0  0  0  0  0  0  0  0  0  0  0  0
  -12.2496   13.8544  -15.9292 C   0  0  0  0  0  0  0  0  0  0  0  0
  -13.3245   14.3905  -16.6562 C   0  0  0  0  0  0  0  0  0  0  0  0
  -13.0796   15.1822  -17.8042 C   0  0  0  0  0  0  0  0  0  0  0  0
  -11.7178   15.3903  -18.1586 C   0  0  0  0  0  0  0  0  0  0  0  0
  -11.3862   16.1742  -19.2990 O   0  0  0  0  0  0  0  0  0  0  0  0
  -12.4343   16.7415  -20.0719 C   0  0  0  0  0  0  0  0  0  0  0  0
  -12.9663   18.0172  -19.8071 C   0  0  0  0  0  0  0  0  0  0  0  0
  -12.3123   18.9710  -18.4552 Cl  0  0  0  0  0  0  0  0  0  0  0  0
  -14.0140   18.5064  -20.6314 C   0  0  0  0  0  0  0  0  0  0  0  0
  -14.5172   17.7230  -21.7046 C   0  0  0  0  0  0  0  0  0  0  0  0
  -13.9688   16.4502  -21.9493 C   0  0  0  0  0  0  0  0  0  0  0  0
  -12.9289   15.9556  -21.1372 C   0  0  0  0  0  0  0  0  0  0  0  0
  -12.2447   14.3205  -21.4738 Cl  0  0  0  0  0  0  0  0  0  0  0  0
  -10.6888   14.8433  -17.4141 N   0  0  0  0  0  0  0  0  0  0  0  0
  -10.9013   14.0685  -16.2917 C   0  0  0  0  0  0  0  0  0  0  0  0
  1  2  1  0
  2  3  2  0
  3  4  1  0
  4  5  2  0
  5  6  1  0
  6  7  1  0
  7  8  2  0
  8  9  1  0
  8 10  1  0
 10 11  2  0
 11 12  1  0
 12 13  2  0
 13 14  1  0
  5 15  1  0
 15 16  2  0
 16  2  1  0
 13  7  1  0
M  END
>  <shape_align_shape_tanimoto>  (2) 
0.81779843912560812

>  <shape_align_color_tanimoto>  (2) 
0.028336234964624944

>  <metric>  (2) 
color

>  <metric_score>  (2) 
0.028

>  <template_pid>  (2) 
5ORX

>  <template_shape_score>  (2) 
0.818

>  <template_color_score>  (2) 
0.028

>  <template_combo_score>  (2) 
0.423

$$$$
5ORX_combo_pose
     RDKit          3D

 16 17  0  0  0  0  0  0  0  0999 V2000
  -12.7178   12.9321  -14.5682 N   0  0  0  0  0  0  0  0  0  0  0  0
  -12.4232   13.6894  -15.7366 C   0  0  0  0  0  0  0  0  0  0  0  0
  -11.1143   13.7734  -16.1679 C   0  0  0  0  0  0  0  0  0  0  0  0
  -10.8833   14.5291  -17.3191 C   0  0  0  0  0  0  0  0  0  0  0  0
  -11.9160   15.1577  -17.9870 C   0  0  0  0  0  0  0  0  0  0  0  0
  -11.5851   15.8860  -19.1220 O   0  0  0  0  0  0  0  0  0  0  0  0
  -12.4562   16.5765  -19.9179 C   0  0  0  0  0  0  0  0  0  0  0  0
  -13.0359   15.9003  -20.9909 C   0  0  0  0  0  0  0  0  0  0  0  0
  -12.6545   14.2249  -21.2993 Cl  0  0  0  0  0  0  0  0  0  0  0  0
  -13.9185   16.5647  -21.8143 C   0  0  0  0  0  0  0  0  0  0  0  0
  -14.2665   17.8854  -21.6324 C   0  0  0  0  0  0  0  0  0  0  0  0
  -13.6943   18.5549  -20.5723 C   0  0  0  0  0  0  0  0  0  0  0  0
  -12.7995   17.8997  -19.7288 C   0  0  0  0  0  0  0  0  0  0  0  0
  -12.0618   18.7349  -18.3755 Cl  0  0  0  0  0  0  0  0  0  0  0  0
  -13.1799   15.0465  -17.5269 N   0  0  0  0  0  0  0  0  0  0  0  0
  -13.4543   14.3182  -16.4052 C   0  0  0  0  0  0  0  0  0  0  0  0
  1  2  1  0
  2  3  2  0
  3  4  1  0
  4  5  2  0
  5  6  1  0
  6  7  1  0
  7  8  2  0
  8  9  1  0
  8 10  1  0
 10 11  2  0
 11 12  1  0
 12 13  2  0
 13 14  1  0
  5 15  1  0
 15 16  2  0
 16  2  1  0
 13  7  1  0
M  END
>  <shape_align_shape_tanimoto>  (3) 
0.83867674573434348

>  <shape_align_color_tanimoto>  (3) 
0.024246378593799734

>  <metric>  (3) 
combo

>  <metric_score>  (3) 
0.431

>  <template_pid>  (3) 
5ORX

>  <template_shape_score>  (3) 
0.839

>  <template_color_score>  (3) 
0.024

>  <template_combo_score>  (3) 
0.431

$$$$
