4J73_shape_pose
     RDKit          3D

 44 43  0  0  0  0  0  0  0  0999 V2000
  -91.5431   74.0847  119.6910 C   0  0  0  0  0  0  0  0  0  0  0  0
  -91.5990   74.4754  121.1382 C   0  0  0  0  0  0  0  0  0  0  0  0
  -91.2806   75.9780  121.2516 C   0  0  0  0  0  0  0  0  0  0  0  0
  -92.9473   74.2922  121.7491 C   0  0  0  0  0  0  0  0  0  0  0  0
  -93.4556   72.8498  121.7024 C   0  0  2  0  0  0  0  0  0  0  0  0
  -94.7812   72.9261  122.3408 N   0  0  0  0  0  0  0  0  0  0  0  0
  -95.9478   72.9901  121.5415 C   0  0  0  0  0  0  0  0  0  0  0  0
  -95.7464   72.9679  120.2792 O   0  0  0  0  0  0  0  0  0  0  0  0
  -97.3249   73.0831  121.9996 C   0  0  2  0  0  0  0  0  0  0  0  0
  -97.8236   74.5186  121.7579 C   0  0  0  0  0  0  0  0  0  0  0  0
  -97.7494   74.8350  120.2978 C   0  0  0  0  0  0  0  0  0  0  0  0
  -98.2961   76.2537  120.0601 C   0  0  0  0  0  0  0  0  0  0  0  0
  -99.7245   76.3774  120.4844 C   0  0  0  0  0  0  0  0  0  0  0  0
 -100.1863   77.7576  120.2429 N   0  0  0  0  0  0  0  0  0  0  0  0
  -97.3865   72.8354  123.4413 N   0  0  0  0  0  0  0  0  0  0  0  0
  -98.5449   72.2423  123.9437 C   0  0  0  0  0  0  0  0  0  0  0  0
  -99.4750   71.9630  123.1044 O   0  0  0  0  0  0  0  0  0  0  0  0
  -98.8471   71.8899  125.3504 C   0  0  2  0  0  0  0  0  0  0  0  0
  -98.0315   70.8483  125.9694 C   0  0  0  0  0  0  0  0  0  0  0  0
  -96.6008   70.9020  126.1972 C   0  0  0  0  0  0  0  0  0  0  0  0
  -95.9473   71.8298  127.1209 C   0  0  0  0  0  0  0  0  0  0  0  0
  -96.0206   73.2965  126.9106 C   0  0  0  0  0  0  0  0  0  0  0  0
  -95.2822   73.9699  128.0195 N   0  0  0  0  0  0  0  0  0  0  0  0
 -100.2852   71.4713  125.2981 N   0  0  0  0  0  0  0  0  0  0  0  0
 -101.2285   72.3659  125.8954 C   0  0  0  0  0  0  0  0  0  0  0  0
 -100.7879   73.4257  126.4225 O   0  0  0  0  0  0  0  0  0  0  0  0
 -102.6732   72.1415  125.9403 C   0  0  2  0  0  0  0  0  0  0  0  0
 -103.2339   72.3402  127.3442 C   0  0  0  0  0  0  0  0  0  0  0  0
 -103.1570   70.9429  125.3176 N   0  0  0  0  0  0  0  0  0  0  0  0
 -104.0201   71.0349  124.1985 C   0  0  0  0  0  0  0  0  0  0  0  0
 -104.3510   72.1780  123.7489 O   0  0  0  0  0  0  0  0  0  0  0  0
 -104.5961   69.8739  123.4795 C   0  0  2  0  0  0  0  0  0  0  0  0
 -106.1177   69.9692  123.5538 C   0  0  0  0  0  0  0  0  0  0  0  0
 -104.1638   68.6677  124.1661 N   0  0  0  0  0  0  0  0  0  0  0  0
  -92.5346   71.9293  122.3609 C   0  0  0  0  0  0  0  0  0  0  0  0
  -91.3664   71.7437  121.8795 O   0  0  0  0  0  0  0  0  0  0  0  0
  -92.8153   71.1764  123.5464 N   0  0  0  0  0  0  0  0  0  0  0  0
  -91.8595   70.2996  124.1387 C   0  0  2  0  0  0  0  0  0  0  0  0
  -92.2847   68.9071  124.3220 C   0  0  0  0  0  0  0  0  0  0  0  0
  -91.4292   68.0231  124.5714 O   0  0  0  0  0  0  0  0  0  0  0  0
  -93.6263   68.4912  124.2342 O   0  0  0  0  0  0  0  0  0  0  0  0
  -91.3423   70.8409  125.4679 C   0  0  0  0  0  0  0  0  0  0  0  0
  -90.6716   72.2003  125.2336 C   0  0  0  0  0  0  0  0  0  0  0  0
  -90.3331   69.9425  126.1039 C   0  0  0  0  0  0  0  0  0  0  0  0
  1  2  1  0
  2  3  1  0
  2  4  1  0
  5  4  1  1
  5  6  1  0
  6  7  1  0
  7  8  2  0
  7  9  1  0
  9 10  1  1
 10 11  1  0
 11 12  1  0
 12 13  1  0
 13 14  1  0
  9 15  1  0
 15 16  1  0
 16 17  2  0
 16 18  1  0
 18 19  1  6
 19 20  1  0
 20 21  1  0
 21 22  1  0
 22 23  1  0
 18 24  1  0
 24 25  1  0
 25 26  2  0
 25 27  1  0
 27 28  1  1
 27 29  1  0
 29 30  1  0
 30 31  2  0
 30 32  1  0
 32 33  1  1
 32 34  1  0
  5 35  1  0
 35 36  2  0
 35 37  1  0
 38 37  1  1
 38 39  1  0
 39 40  2  0
 39 41  1  0
 38 42  1  0
 42 43  1  0
 42 44  1  0
M  CHG  4  14   1  23   1  34   1  41  -1
M  END
>  <shape_align_shape_tanimoto>  (1) 
0.54510967675020505

>  <shape_align_color_tanimoto>  (1) 
0.036980777233521722

>  <metric>  (1) 
shape

>  <metric_score>  (1) 
0.545

>  <template_pid>  (1) 
4J73

>  <template_shape_score>  (1) 
0.545

>  <template_color_score>  (1) 
0.037

>  <template_combo_score>  (1) 
0.291

$$$$
4J73_color_pose
     RDKit          3D

 44 43  0  0  0  0  0  0  0  0999 V2000
 -103.4723   71.8002  126.9688 C   0  0  0  0  0  0  0  0  0  0  0  0
 -102.4136   72.6259  126.2081 C   0  0  0  0  0  0  0  0  0  0  0  0
 -102.2995   72.2714  124.7918 C   0  0  0  0  0  0  0  0  0  0  0  0
 -101.2560   72.8162  127.0784 C   0  0  0  0  0  0  0  0  0  0  0  0
 -100.0528   73.5485  126.6123 C   0  0  2  0  0  0  0  0  0  0  0  0
  -99.2767   73.0109  125.5552 N   0  0  0  0  0  0  0  0  0  0  0  0
  -99.1745   71.6627  125.1415 C   0  0  0  0  0  0  0  0  0  0  0  0
  -99.8068   70.7148  125.7216 O   0  0  0  0  0  0  0  0  0  0  0  0
  -98.3220   71.2213  123.9922 C   0  0  2  0  0  0  0  0  0  0  0  0
  -97.2308   70.3323  124.4914 C   0  0  0  0  0  0  0  0  0  0  0  0
  -97.6299   69.0815  125.1860 C   0  0  0  0  0  0  0  0  0  0  0  0
  -96.4101   68.2713  125.6129 C   0  0  0  0  0  0  0  0  0  0  0  0
  -95.5152   69.0152  126.5618 C   0  0  0  0  0  0  0  0  0  0  0  0
  -96.1763   69.3916  127.7850 N   0  0  0  0  0  0  0  0  0  0  0  0
  -97.6604   72.4257  123.4824 N   0  0  0  0  0  0  0  0  0  0  0  0
  -97.9245   72.9657  122.2025 C   0  0  0  0  0  0  0  0  0  0  0  0
  -98.8015   72.3506  121.5117 O   0  0  0  0  0  0  0  0  0  0  0  0
  -97.2344   74.1867  121.6734 C   0  0  2  0  0  0  0  0  0  0  0  0
  -97.7392   74.7835  120.4610 C   0  0  0  0  0  0  0  0  0  0  0  0
  -99.0284   75.4535  120.3236 C   0  0  0  0  0  0  0  0  0  0  0  0
 -100.3477   74.9634  120.6812 C   0  0  0  0  0  0  0  0  0  0  0  0
 -100.7389   74.8275  122.1077 C   0  0  0  0  0  0  0  0  0  0  0  0
 -100.6739   76.1284  122.7999 N   0  0  0  0  0  0  0  0  0  0  0  0
  -95.8485   74.3021  121.9909 N   0  0  0  0  0  0  0  0  0  0  0  0
  -94.9535   73.2763  122.3130 C   0  0  0  0  0  0  0  0  0  0  0  0
  -95.3012   72.0720  122.3380 O   0  0  0  0  0  0  0  0  0  0  0  0
  -93.5038   73.5244  122.6557 C   0  0  2  0  0  0  0  0  0  0  0  0
  -92.8213   74.3737  121.6465 C   0  0  0  0  0  0  0  0  0  0  0  0
  -92.8342   72.2613  122.9118 N   0  0  0  0  0  0  0  0  0  0  0  0
  -92.3636   71.8547  124.1757 C   0  0  0  0  0  0  0  0  0  0  0  0
  -92.5043   72.5980  125.1968 O   0  0  0  0  0  0  0  0  0  0  0  0
  -91.6989   70.5261  124.2628 C   0  0  2  0  0  0  0  0  0  0  0  0
  -92.6486   69.4025  123.9051 C   0  0  0  0  0  0  0  0  0  0  0  0
  -91.3020   70.3299  125.6444 N   0  0  0  0  0  0  0  0  0  0  0  0
  -99.3051   74.0861  127.7639 C   0  0  0  0  0  0  0  0  0  0  0  0
  -99.9506   74.5411  128.7434 O   0  0  0  0  0  0  0  0  0  0  0  0
  -97.8590   74.1016  127.7874 N   0  0  0  0  0  0  0  0  0  0  0  0
  -97.1900   74.6412  128.9410 C   0  0  2  0  0  0  0  0  0  0  0  0
  -96.5323   75.9428  128.6255 C   0  0  0  0  0  0  0  0  0  0  0  0
  -97.3377   76.9154  128.4148 O   0  0  0  0  0  0  0  0  0  0  0  0
  -95.1699   76.1160  128.5585 O   0  0  0  0  0  0  0  0  0  0  0  0
  -96.2726   73.6932  129.6388 C   0  0  0  0  0  0  0  0  0  0  0  0
  -95.5874   74.3145  130.8551 C   0  0  0  0  0  0  0  0  0  0  0  0
  -95.1228   73.2526  128.7367 C   0  0  0  0  0  0  0  0  0  0  0  0
  1  2  1  0
  2  3  1  0
  2  4  1  0
  5  4  1  1
  5  6  1  0
  6  7  1  0
  7  8  2  0
  7  9  1  0
  9 10  1  1
 10 11  1  0
 11 12  1  0
 12 13  1  0
 13 14  1  0
  9 15  1  0
 15 16  1  0
 16 17  2  0
 16 18  1  0
 18 19  1  6
 19 20  1  0
 20 21  1  0
 21 22  1  0
 22 23  1  0
 18 24  1  0
 24 25  1  0
 25 26  2  0
 25 27  1  0
 27 28  1  6
 27 29  1  0
 29 30  1  0
 30 31  2  0
 30 32  1  0
 32 33  1  1
 32 34  1  0
  5 35  1  0
 35 36  2  0
 35 37  1  0
 38 37  1  6
 38 39  1  0
 39 40  2  0
 39 41  1  0
 38 42  1  0
 42 43  1  0
 42 44  1  0
M  CHG  4  14   1  23   1  34   1  41  -1
M  END
>  <shape_align_shape_tanimoto>  (2) 
0.50787379548210987

>  <shape_align_color_tanimoto>  (2) 
0.1064214376783057

>  <metric>  (2) 
color

>  <metric_score>  (2) 
0.106

>  <template_pid>  (2) 
4J73

>  <template_shape_score>  (2) 
0.508

>  <template_color_score>  (2) 
0.106

>  <template_combo_score>  (2) 
0.307

$$$$
4J73_combo_pose
     RDKit          3D

 44 43  0  0  0  0  0  0  0  0999 V2000
 -103.4723   71.8002  126.9688 C   0  0  0  0  0  0  0  0  0  0  0  0
 -102.4136   72.6259  126.2081 C   0  0  0  0  0  0  0  0  0  0  0  0
 -102.2995   72.2714  124.7918 C   0  0  0  0  0  0  0  0  0  0  0  0
 -101.2560   72.8162  127.0784 C   0  0  0  0  0  0  0  0  0  0  0  0
 -100.0528   73.5485  126.6123 C   0  0  2  0  0  0  0  0  0  0  0  0
  -99.2767   73.0109  125.5552 N   0  0  0  0  0  0  0  0  0  0  0  0
  -99.1745   71.6627  125.1415 C   0  0  0  0  0  0  0  0  0  0  0  0
  -99.8068   70.7148  125.7216 O   0  0  0  0  0  0  0  0  0  0  0  0
  -98.3220   71.2213  123.9922 C   0  0  2  0  0  0  0  0  0  0  0  0
  -97.2308   70.3323  124.4914 C   0  0  0  0  0  0  0  0  0  0  0  0
  -97.6299   69.0815  125.1860 C   0  0  0  0  0  0  0  0  0  0  0  0
  -96.4101   68.2713  125.6129 C   0  0  0  0  0  0  0  0  0  0  0  0
  -95.5152   69.0152  126.5618 C   0  0  0  0  0  0  0  0  0  0  0  0
  -96.1763   69.3916  127.7850 N   0  0  0  0  0  0  0  0  0  0  0  0
  -97.6604   72.4257  123.4824 N   0  0  0  0  0  0  0  0  0  0  0  0
  -97.9245   72.9657  122.2025 C   0  0  0  0  0  0  0  0  0  0  0  0
  -98.8015   72.3506  121.5117 O   0  0  0  0  0  0  0  0  0  0  0  0
  -97.2344   74.1867  121.6734 C   0  0  2  0  0  0  0  0  0  0  0  0
  -97.7392   74.7835  120.4610 C   0  0  0  0  0  0  0  0  0  0  0  0
  -99.0284   75.4535  120.3236 C   0  0  0  0  0  0  0  0  0  0  0  0
 -100.3477   74.9634  120.6812 C   0  0  0  0  0  0  0  0  0  0  0  0
 -100.7389   74.8275  122.1077 C   0  0  0  0  0  0  0  0  0  0  0  0
 -100.6739   76.1284  122.7999 N   0  0  0  0  0  0  0  0  0  0  0  0
  -95.8485   74.3021  121.9909 N   0  0  0  0  0  0  0  0  0  0  0  0
  -94.9535   73.2763  122.3130 C   0  0  0  0  0  0  0  0  0  0  0  0
  -95.3012   72.0720  122.3380 O   0  0  0  0  0  0  0  0  0  0  0  0
  -93.5038   73.5244  122.6557 C   0  0  2  0  0  0  0  0  0  0  0  0
  -92.8213   74.3737  121.6465 C   0  0  0  0  0  0  0  0  0  0  0  0
  -92.8342   72.2613  122.9118 N   0  0  0  0  0  0  0  0  0  0  0  0
  -92.3636   71.8547  124.1757 C   0  0  0  0  0  0  0  0  0  0  0  0
  -92.5043   72.5980  125.1968 O   0  0  0  0  0  0  0  0  0  0  0  0
  -91.6989   70.5261  124.2628 C   0  0  2  0  0  0  0  0  0  0  0  0
  -92.6486   69.4025  123.9051 C   0  0  0  0  0  0  0  0  0  0  0  0
  -91.3020   70.3299  125.6444 N   0  0  0  0  0  0  0  0  0  0  0  0
  -99.3051   74.0861  127.7639 C   0  0  0  0  0  0  0  0  0  0  0  0
  -99.9506   74.5411  128.7434 O   0  0  0  0  0  0  0  0  0  0  0  0
  -97.8590   74.1016  127.7874 N   0  0  0  0  0  0  0  0  0  0  0  0
  -97.1900   74.6412  128.9410 C   0  0  2  0  0  0  0  0  0  0  0  0
  -96.5323   75.9428  128.6255 C   0  0  0  0  0  0  0  0  0  0  0  0
  -97.3377   76.9154  128.4148 O   0  0  0  0  0  0  0  0  0  0  0  0
  -95.1699   76.1160  128.5585 O   0  0  0  0  0  0  0  0  0  0  0  0
  -96.2726   73.6932  129.6388 C   0  0  0  0  0  0  0  0  0  0  0  0
  -95.5874   74.3145  130.8551 C   0  0  0  0  0  0  0  0  0  0  0  0
  -95.1228   73.2526  128.7367 C   0  0  0  0  0  0  0  0  0  0  0  0
  1  2  1  0
  2  3  1  0
  2  4  1  0
  5  4  1  1
  5  6  1  0
  6  7  1  0
  7  8  2  0
  7  9  1  0
  9 10  1  1
 10 11  1  0
 11 12  1  0
 12 13  1  0
 13 14  1  0
  9 15  1  0
 15 16  1  0
 16 17  2  0
 16 18  1  0
 18 19  1  6
 19 20  1  0
 20 21  1  0
 21 22  1  0
 22 23  1  0
 18 24  1  0
 24 25  1  0
 25 26  2  0
 25 27  1  0
 27 28  1  6
 27 29  1  0
 29 30  1  0
 30 31  2  0
 30 32  1  0
 32 33  1  1
 32 34  1  0
  5 35  1  0
 35 36  2  0
 35 37  1  0
 38 37  1  6
 38 39  1  0
 39 40  2  0
 39 41  1  0
 38 42  1  0
 42 43  1  0
 42 44  1  0
M  CHG  4  14   1  23   1  34   1  41  -1
M  END
>  <shape_align_shape_tanimoto>  (3) 
0.50787379548210987

>  <shape_align_color_tanimoto>  (3) 
0.1064214376783057

>  <metric>  (3) 
combo

>  <metric_score>  (3) 
0.307

>  <template_pid>  (3) 
4J73

>  <template_shape_score>  (3) 
0.508

>  <template_color_score>  (3) 
0.106

>  <template_combo_score>  (3) 
0.307

$$$$
