2VGC_shape_pose
     RDKit          3D

 15 15  0  0  0  0  0  0  0  0999 V2000
  -18.9621  -52.8331  -11.2888 C   0  0  0  0  0  0  0  0  0  0  0  0
  -19.5670  -51.7065  -10.5585 C   0  0  0  0  0  0  0  0  0  0  0  0
  -19.6933  -51.8262   -9.3023 O   0  0  0  0  0  0  0  0  0  0  0  0
  -19.9857  -50.5451  -11.2382 N   0  0  0  0  0  0  0  0  0  0  0  0
  -20.5822  -49.3998  -10.6243 C   0  0  1  0  0  0  0  0  0  0  0  0
  -19.6023  -48.1579  -10.7731 B   0  0  0  0  0  0  0  0  0  0  0  0
  -20.0591  -46.8319  -11.1959 O   0  0  0  0  0  0  0  0  0  0  0  0
  -21.9391  -49.0579  -11.1840 C   0  0  0  0  0  0  0  0  0  0  0  0
  -22.9250  -50.1225  -11.0337 C   0  0  0  0  0  0  0  0  0  0  0  0
  -23.7515  -50.2420   -9.9313 C   0  0  0  0  0  0  0  0  0  0  0  0
  -24.6798  -51.2314   -9.7732 C   0  0  0  0  0  0  0  0  0  0  0  0
  -24.7912  -52.1682  -10.7872 C   0  0  0  0  0  0  0  0  0  0  0  0
  -25.9553  -53.4720  -10.6683 Cl  0  0  0  0  0  0  0  0  0  0  0  0
  -23.9763  -52.0687  -11.8971 C   0  0  0  0  0  0  0  0  0  0  0  0
  -23.0376  -51.0679  -12.0566 C   0  0  0  0  0  0  0  0  0  0  0  0
  1  2  1  0
  2  3  2  0
  2  4  1  0
  4  5  1  0
  5  6  1  6
  6  7  1  0
  5  8  1  0
  8  9  1  0
  9 10  2  0
 10 11  1  0
 11 12  2  0
 12 13  1  0
 12 14  1  0
 14 15  2  0
 15  9  1  0
M  END
>  <shape_align_shape_tanimoto>  (1) 
0.44851474761872889

>  <shape_align_color_tanimoto>  (1) 
0.040395374056980578

>  <metric>  (1) 
shape

>  <metric_score>  (1) 
0.449

>  <template_pid>  (1) 
2VGC

>  <template_shape_score>  (1) 
0.449

>  <template_color_score>  (1) 
0.040

>  <template_combo_score>  (1) 
0.244

$$$$
2VGC_color_pose
     RDKit          3D

 15 15  0  0  0  0  0  0  0  0999 V2000
  -24.8429  -54.9941   -9.9084 C   0  0  0  0  0  0  0  0  0  0  0  0
  -25.2179  -53.6773  -10.5113 C   0  0  0  0  0  0  0  0  0  0  0  0
  -26.3320  -53.5265  -11.1186 O   0  0  0  0  0  0  0  0  0  0  0  0
  -24.3287  -52.5763  -10.4112 N   0  0  0  0  0  0  0  0  0  0  0  0
  -24.7026  -51.3064  -10.9988 C   0  0  1  0  0  0  0  0  0  0  0  0
  -24.8245  -50.1746   -9.8911 B   0  0  0  0  0  0  0  0  0  0  0  0
  -25.3032  -50.6092   -8.5610 O   0  0  0  0  0  0  0  0  0  0  0  0
  -23.7336  -50.9062  -12.0881 C   0  0  0  0  0  0  0  0  0  0  0  0
  -22.3469  -50.7653  -11.5766 C   0  0  0  0  0  0  0  0  0  0  0  0
  -21.4422  -51.8103  -11.5495 C   0  0  0  0  0  0  0  0  0  0  0  0
  -20.1811  -51.5475  -11.0481 C   0  0  0  0  0  0  0  0  0  0  0  0
  -19.8273  -50.3063  -10.5927 C   0  0  0  0  0  0  0  0  0  0  0  0
  -18.2246  -49.9902   -9.9602 Cl  0  0  0  0  0  0  0  0  0  0  0  0
  -20.7214  -49.2816  -10.6216 C   0  0  0  0  0  0  0  0  0  0  0  0
  -21.9973  -49.4915  -11.1138 C   0  0  0  0  0  0  0  0  0  0  0  0
  1  2  1  0
  2  3  2  0
  2  4  1  0
  4  5  1  0
  5  6  1  1
  6  7  1  0
  5  8  1  0
  8  9  1  0
  9 10  2  0
 10 11  1  0
 11 12  2  0
 12 13  1  0
 12 14  1  0
 14 15  2  0
 15  9  1  0
M  END
>  <shape_align_shape_tanimoto>  (2) 
0.34338519396356215

>  <shape_align_color_tanimoto>  (2) 
0.063048018751450816

>  <metric>  (2) 
color

>  <metric_score>  (2) 
0.063

>  <template_pid>  (2) 
2VGC

>  <template_shape_score>  (2) 
0.343

>  <template_color_score>  (2) 
0.063

>  <template_combo_score>  (2) 
0.203

$$$$
2VGC_combo_pose
     RDKit          3D

 15 15  0  0  0  0  0  0  0  0999 V2000
  -19.1769  -52.8848  -11.2022 C   0  0  0  0  0  0  0  0  0  0  0  0
  -19.7939  -51.7105  -10.5330 C   0  0  0  0  0  0  0  0  0  0  0  0
  -20.1264  -51.7733   -9.3288 O   0  0  0  0  0  0  0  0  0  0  0  0
  -20.0350  -50.4750  -11.2135 N   0  0  0  0  0  0  0  0  0  0  0  0
  -20.6242  -49.3248  -10.6093 C   0  0  1  0  0  0  0  0  0  0  0  0
  -19.6526  -48.0761  -10.5281 B   0  0  0  0  0  0  0  0  0  0  0  0
  -19.8166  -46.9021  -11.3764 O   0  0  0  0  0  0  0  0  0  0  0  0
  -21.9654  -48.9557  -11.1939 C   0  0  0  0  0  0  0  0  0  0  0  0
  -22.9109  -50.0860  -11.0125 C   0  0  0  0  0  0  0  0  0  0  0  0
  -22.9597  -51.0313  -12.0343 C   0  0  0  0  0  0  0  0  0  0  0  0
  -23.8234  -52.0971  -11.9072 C   0  0  0  0  0  0  0  0  0  0  0  0
  -24.6355  -52.2449  -10.7944 C   0  0  0  0  0  0  0  0  0  0  0  0
  -25.6850  -53.6401  -10.7564 Cl  0  0  0  0  0  0  0  0  0  0  0  0
  -24.5852  -51.3089   -9.7857 C   0  0  0  0  0  0  0  0  0  0  0  0
  -23.7151  -50.2238   -9.9005 C   0  0  0  0  0  0  0  0  0  0  0  0
  1  2  1  0
  2  3  2  0
  2  4  1  0
  4  5  1  0
  5  6  1  6
  6  7  1  0
  5  8  1  0
  8  9  1  0
  9 10  2  0
 10 11  1  0
 11 12  2  0
 12 13  1  0
 12 14  1  0
 14 15  2  0
 15  9  1  0
M  END
>  <shape_align_shape_tanimoto>  (3) 
0.4397917239850645

>  <shape_align_color_tanimoto>  (3) 
0.05352862477789188

>  <metric>  (3) 
combo

>  <metric_score>  (3) 
0.247

>  <template_pid>  (3) 
2VGC

>  <template_shape_score>  (3) 
0.440

>  <template_color_score>  (3) 
0.054

>  <template_combo_score>  (3) 
0.247

$$$$
