4X7L_shape_pose
     RDKit          3D

 40 45  0  0  0  0  0  0  0  0999 V2000
   -4.1507   -0.1154   26.6225 C   0  0  0  0  0  0  0  0  0  0  0  0
   -4.0869   -1.1594   25.6249 N   0  0  0  0  0  0  0  0  0  0  0  0
   -4.0263   -0.9172   24.2249 C   0  0  0  0  0  0  0  0  0  0  0  0
   -3.9691   -1.4173   23.1720 N   0  0  0  0  0  0  0  0  0  0  0  0
   -3.9212   -0.9469   21.9645 C   0  0  0  0  0  0  0  0  0  0  0  0
   -3.8537   -1.5665   20.7315 C   0  0  0  0  0  0  0  0  0  0  0  0
   -3.8138   -0.8163   19.5946 C   0  0  0  0  0  0  0  0  0  0  0  0
   -3.8356    0.5622   19.5593 C   0  0  0  0  0  0  0  0  0  0  0  0
   -3.7920    1.3398   18.3295 C   0  0  0  0  0  0  0  0  0  0  0  0
   -4.9982    1.6542   17.7427 C   0  0  0  0  0  0  0  0  0  0  0  0
   -6.3018    1.2387   18.3076 C   0  0  0  0  0  0  0  0  0  0  0  0
   -4.9501    2.3892   16.5793 C   0  0  0  0  0  0  0  0  0  0  0  0
   -3.7253    2.7908   16.0308 C   0  0  0  0  0  0  0  0  0  0  0  0
   -2.5211    2.4880   16.6020 C   0  0  0  0  0  0  0  0  0  0  0  0
   -1.2137    2.8076   16.0876 C   0  0  0  0  0  0  0  0  0  0  0  0
   -0.2542    2.1172   16.5959 O   0  0  0  0  0  0  0  0  0  0  0  0
   -0.8397    3.7763   15.0991 C   0  0  0  0  0  0  0  0  0  0  0  0
    0.2896    3.7141   14.2917 C   0  0  0  0  0  0  0  0  0  0  0  0
    1.3745    2.7713   14.2150 C   0  0  0  0  0  0  0  0  0  0  0  0
    1.6022    2.1762   12.9687 C   0  0  0  0  0  0  0  0  0  0  0  0
    2.6338    1.2925   12.7538 C   0  0  0  0  0  0  0  0  0  0  0  0
    3.4998    0.9487   13.7667 C   0  0  0  0  0  0  0  0  0  0  0  0
    3.2843    1.5301   14.9978 C   0  0  0  0  0  0  0  0  0  0  0  0
    2.2363    2.4287   15.2162 C   0  0  0  0  0  0  0  0  0  0  0  0
    0.2970    4.8353   13.4946 N   0  0  0  0  0  0  0  0  0  0  0  0
    1.2936    5.1867   12.4912 C   0  0  0  0  0  0  0  0  0  0  0  0
   -0.7453    5.5826   13.7570 N   0  0  0  0  0  0  0  0  0  0  0  0
   -1.0613    6.8278   13.1179 C   0  0  0  0  0  0  0  0  0  0  0  0
   -1.4665    6.7828   11.7885 C   0  0  0  0  0  0  0  0  0  0  0  0
   -1.7923    7.9306   11.0874 C   0  0  0  0  0  0  0  0  0  0  0  0
   -1.6991    9.1479   11.7683 C   0  0  0  0  0  0  0  0  0  0  0  0
   -1.2949    9.1892   13.0933 C   0  0  0  0  0  0  0  0  0  0  0  0
   -0.9721    8.0360   13.7829 C   0  0  0  0  0  0  0  0  0  0  0  0
   -1.4527    4.9711   14.7243 C   0  0  0  0  0  0  0  0  0  0  0  0
   -2.5139    5.4892   15.1723 O   0  0  0  0  0  0  0  0  0  0  0  0
   -2.5786    1.7398   17.7841 C   0  0  0  0  0  0  0  0  0  0  0  0
   -1.4127    1.3484   18.4932 N   0  0  0  0  0  0  0  0  0  0  0  0
   -3.9034    1.2015   20.7887 C   0  0  0  0  0  0  0  0  0  0  0  0
   -3.9432    0.4699   21.9188 C   0  0  0  0  0  0  0  0  0  0  0  0
   -4.0327    0.9288   23.6854 S   0  0  0  0  0  0  0  0  0  0  0  0
  1  2  1  0
  2  3  1  0
  3  4  2  0
  4  5  1  0
  5  6  2  0
  6  7  1  0
  7  8  2  0
  8  9  1  0
  9 10  2  0
 10 11  1  0
 10 12  1  0
 12 13  2  0
 13 14  1  0
 14 15  1  0
 15 16  2  0
 15 17  1  0
 17 18  2  0
 18 19  1  0
 19 20  2  0
 20 21  1  0
 21 22  2  0
 22 23  1  0
 23 24  2  0
 18 25  1  0
 25 26  1  0
 25 27  1  0
 27 28  1  0
 28 29  2  0
 29 30  1  0
 30 31  2  0
 31 32  1  0
 32 33  2  0
 27 34  1  0
 34 35  2  0
 14 36  2  0
 36 37  1  0
  8 38  1  0
 38 39  2  0
 39 40  1  0
 40  3  1  0
 39  5  1  0
 36  9  1  0
 34 17  1  0
 24 19  1  0
 33 28  1  0
M  END
>  <shape_align_shape_tanimoto>  (1) 
0.56428155988259487

>  <shape_align_color_tanimoto>  (1) 
0.091331664050996256

>  <metric>  (1) 
shape

>  <metric_score>  (1) 
0.564

>  <template_pid>  (1) 
4X7L

>  <template_shape_score>  (1) 
0.564

>  <template_color_score>  (1) 
0.091

>  <template_combo_score>  (1) 
0.328

$$$$
4X7L_color_pose
     RDKit          3D

 40 45  0  0  0  0  0  0  0  0999 V2000
   -4.1391   -0.2833   29.0967 C   0  0  0  0  0  0  0  0  0  0  0  0
   -5.0591   -0.9301   28.2199 N   0  0  0  0  0  0  0  0  0  0  0  0
   -4.8590   -1.0199   26.7813 C   0  0  0  0  0  0  0  0  0  0  0  0
   -5.2934   -1.4051   25.8020 N   0  0  0  0  0  0  0  0  0  0  0  0
   -4.8809   -1.3483   24.5576 C   0  0  0  0  0  0  0  0  0  0  0  0
   -5.4438   -1.8381   23.3755 C   0  0  0  0  0  0  0  0  0  0  0  0
   -4.7868   -1.6365   22.1956 C   0  0  0  0  0  0  0  0  0  0  0  0
   -3.5848   -0.9747   22.0627 C   0  0  0  0  0  0  0  0  0  0  0  0
   -2.9114   -0.7869   20.7804 C   0  0  0  0  0  0  0  0  0  0  0  0
   -2.0155   -1.7649   20.4062 C   0  0  0  0  0  0  0  0  0  0  0  0
   -1.7363   -2.9365   21.2450 C   0  0  0  0  0  0  0  0  0  0  0  0
   -1.3837   -1.5943   19.1948 C   0  0  0  0  0  0  0  0  0  0  0  0
   -1.6482   -0.4816   18.3979 C   0  0  0  0  0  0  0  0  0  0  0  0
   -2.5345    0.5034   18.7516 C   0  0  0  0  0  0  0  0  0  0  0  0
   -2.8998    1.6515   17.9872 C   0  0  0  0  0  0  0  0  0  0  0  0
   -3.9447    2.2928   18.4094 O   0  0  0  0  0  0  0  0  0  0  0  0
   -2.2902    2.2138   16.8150 C   0  0  0  0  0  0  0  0  0  0  0  0
   -3.0116    2.9761   15.8855 C   0  0  0  0  0  0  0  0  0  0  0  0
   -4.4395    3.2694   15.8719 C   0  0  0  0  0  0  0  0  0  0  0  0
   -4.9062    4.5521   15.6706 C   0  0  0  0  0  0  0  0  0  0  0  0
   -6.2477    4.8757   15.6396 C   0  0  0  0  0  0  0  0  0  0  0  0
   -7.1929    3.8952   15.8147 C   0  0  0  0  0  0  0  0  0  0  0  0
   -6.7586    2.6031   16.0180 C   0  0  0  0  0  0  0  0  0  0  0  0
   -5.3985    2.2812   16.0482 C   0  0  0  0  0  0  0  0  0  0  0  0
   -2.1753    3.4208   14.9302 N   0  0  0  0  0  0  0  0  0  0  0  0
   -2.4988    4.2463   13.7718 C   0  0  0  0  0  0  0  0  0  0  0  0
   -0.9563    2.9867   15.1937 N   0  0  0  0  0  0  0  0  0  0  0  0
    0.2021    3.2580   14.3942 C   0  0  0  0  0  0  0  0  0  0  0  0
    0.8751    2.1819   13.8535 C   0  0  0  0  0  0  0  0  0  0  0  0
    2.0076    2.3862   13.0666 C   0  0  0  0  0  0  0  0  0  0  0  0
    2.4259    3.7000   12.8513 C   0  0  0  0  0  0  0  0  0  0  0  0
    1.7351    4.7513   13.4031 C   0  0  0  0  0  0  0  0  0  0  0  0
    0.6154    4.5674   14.1823 C   0  0  0  0  0  0  0  0  0  0  0  0
   -1.0021    2.2452   16.3448 C   0  0  0  0  0  0  0  0  0  0  0  0
    0.0359    1.7270   16.8047 O   0  0  0  0  0  0  0  0  0  0  0  0
   -3.1735    0.3215   19.9860 C   0  0  0  0  0  0  0  0  0  0  0  0
   -4.1172    1.2502   20.4981 N   0  0  0  0  0  0  0  0  0  0  0  0
   -3.0190   -0.4858   23.2258 C   0  0  0  0  0  0  0  0  0  0  0  0
   -3.6772   -0.6882   24.4051 C   0  0  0  0  0  0  0  0  0  0  0  0
   -3.2490   -0.2027   26.1158 S   0  0  0  0  0  0  0  0  0  0  0  0
  1  2  1  0
  2  3  1  0
  3  4  2  0
  4  5  1  0
  5  6  2  0
  6  7  1  0
  7  8  2  0
  8  9  1  0
  9 10  2  0
 10 11  1  0
 10 12  1  0
 12 13  2  0
 13 14  1  0
 14 15  1  0
 15 16  2  0
 15 17  1  0
 17 18  2  0
 18 19  1  0
 19 20  2  0
 20 21  1  0
 21 22  2  0
 22 23  1  0
 23 24  2  0
 18 25  1  0
 25 26  1  0
 25 27  1  0
 27 28  1  0
 28 29  2  0
 29 30  1  0
 30 31  2  0
 31 32  1  0
 32 33  2  0
 27 34  1  0
 34 35  2  0
 14 36  2  0
 36 37  1  0
  8 38  1  0
 38 39  2  0
 39 40  1  0
 40  3  1  0
 39  5  1  0
 36  9  1  0
 34 17  1  0
 24 19  1  0
 33 28  1  0
M  END
>  <shape_align_shape_tanimoto>  (2) 
0.41442509487484097

>  <shape_align_color_tanimoto>  (2) 
0.12612503755264928

>  <metric>  (2) 
color

>  <metric_score>  (2) 
0.126

>  <template_pid>  (2) 
4X7L

>  <template_shape_score>  (2) 
0.414

>  <template_color_score>  (2) 
0.126

>  <template_combo_score>  (2) 
0.270

$$$$
4X7L_combo_pose
     RDKit          3D

 40 45  0  0  0  0  0  0  0  0999 V2000
   -4.1507   -0.1154   26.6225 C   0  0  0  0  0  0  0  0  0  0  0  0
   -4.0869   -1.1594   25.6249 N   0  0  0  0  0  0  0  0  0  0  0  0
   -4.0263   -0.9172   24.2249 C   0  0  0  0  0  0  0  0  0  0  0  0
   -3.9691   -1.4173   23.1720 N   0  0  0  0  0  0  0  0  0  0  0  0
   -3.9212   -0.9469   21.9645 C   0  0  0  0  0  0  0  0  0  0  0  0
   -3.8537   -1.5665   20.7315 C   0  0  0  0  0  0  0  0  0  0  0  0
   -3.8138   -0.8163   19.5946 C   0  0  0  0  0  0  0  0  0  0  0  0
   -3.8356    0.5622   19.5593 C   0  0  0  0  0  0  0  0  0  0  0  0
   -3.7920    1.3398   18.3295 C   0  0  0  0  0  0  0  0  0  0  0  0
   -4.9982    1.6542   17.7427 C   0  0  0  0  0  0  0  0  0  0  0  0
   -6.3018    1.2387   18.3076 C   0  0  0  0  0  0  0  0  0  0  0  0
   -4.9501    2.3892   16.5793 C   0  0  0  0  0  0  0  0  0  0  0  0
   -3.7253    2.7908   16.0308 C   0  0  0  0  0  0  0  0  0  0  0  0
   -2.5211    2.4880   16.6020 C   0  0  0  0  0  0  0  0  0  0  0  0
   -1.2137    2.8076   16.0876 C   0  0  0  0  0  0  0  0  0  0  0  0
   -0.2542    2.1172   16.5959 O   0  0  0  0  0  0  0  0  0  0  0  0
   -0.8397    3.7763   15.0991 C   0  0  0  0  0  0  0  0  0  0  0  0
    0.2896    3.7141   14.2917 C   0  0  0  0  0  0  0  0  0  0  0  0
    1.3745    2.7713   14.2150 C   0  0  0  0  0  0  0  0  0  0  0  0
    1.6022    2.1762   12.9687 C   0  0  0  0  0  0  0  0  0  0  0  0
    2.6338    1.2925   12.7538 C   0  0  0  0  0  0  0  0  0  0  0  0
    3.4998    0.9487   13.7667 C   0  0  0  0  0  0  0  0  0  0  0  0
    3.2843    1.5301   14.9978 C   0  0  0  0  0  0  0  0  0  0  0  0
    2.2363    2.4287   15.2162 C   0  0  0  0  0  0  0  0  0  0  0  0
    0.2970    4.8353   13.4946 N   0  0  0  0  0  0  0  0  0  0  0  0
    1.2936    5.1867   12.4912 C   0  0  0  0  0  0  0  0  0  0  0  0
   -0.7453    5.5826   13.7570 N   0  0  0  0  0  0  0  0  0  0  0  0
   -1.0613    6.8278   13.1179 C   0  0  0  0  0  0  0  0  0  0  0  0
   -1.4665    6.7828   11.7885 C   0  0  0  0  0  0  0  0  0  0  0  0
   -1.7923    7.9306   11.0874 C   0  0  0  0  0  0  0  0  0  0  0  0
   -1.6991    9.1479   11.7683 C   0  0  0  0  0  0  0  0  0  0  0  0
   -1.2949    9.1892   13.0933 C   0  0  0  0  0  0  0  0  0  0  0  0
   -0.9721    8.0360   13.7829 C   0  0  0  0  0  0  0  0  0  0  0  0
   -1.4527    4.9711   14.7243 C   0  0  0  0  0  0  0  0  0  0  0  0
   -2.5139    5.4892   15.1723 O   0  0  0  0  0  0  0  0  0  0  0  0
   -2.5786    1.7398   17.7841 C   0  0  0  0  0  0  0  0  0  0  0  0
   -1.4127    1.3484   18.4932 N   0  0  0  0  0  0  0  0  0  0  0  0
   -3.9034    1.2015   20.7887 C   0  0  0  0  0  0  0  0  0  0  0  0
   -3.9432    0.4699   21.9188 C   0  0  0  0  0  0  0  0  0  0  0  0
   -4.0327    0.9288   23.6854 S   0  0  0  0  0  0  0  0  0  0  0  0
  1  2  1  0
  2  3  1  0
  3  4  2  0
  4  5  1  0
  5  6  2  0
  6  7  1  0
  7  8  2  0
  8  9  1  0
  9 10  2  0
 10 11  1  0
 10 12  1  0
 12 13  2  0
 13 14  1  0
 14 15  1  0
 15 16  2  0
 15 17  1  0
 17 18  2  0
 18 19  1  0
 19 20  2  0
 20 21  1  0
 21 22  2  0
 22 23  1  0
 23 24  2  0
 18 25  1  0
 25 26  1  0
 25 27  1  0
 27 28  1  0
 28 29  2  0
 29 30  1  0
 30 31  2  0
 31 32  1  0
 32 33  2  0
 27 34  1  0
 34 35  2  0
 14 36  2  0
 36 37  1  0
  8 38  1  0
 38 39  2  0
 39 40  1  0
 40  3  1  0
 39  5  1  0
 36  9  1  0
 34 17  1  0
 24 19  1  0
 33 28  1  0
M  END
>  <shape_align_shape_tanimoto>  (3) 
0.56428155988259487

>  <shape_align_color_tanimoto>  (3) 
0.091331664050996256

>  <metric>  (3) 
combo

>  <metric_score>  (3) 
0.328

>  <template_pid>  (3) 
4X7L

>  <template_shape_score>  (3) 
0.564

>  <template_color_score>  (3) 
0.091

>  <template_combo_score>  (3) 
0.328

$$$$
