4MW9_shape_pose
     RDKit          3D

 22 23  0  0  0  0  0  0  0  0999 V2000
   50.5500   29.5745   27.8702 C   0  0  0  0  0  0  0  0  0  0  0  0
   51.6183   30.0042   27.4956 C   0  0  0  0  0  0  0  0  0  0  0  0
   52.8970   30.5085   27.0728 C   0  0  0  0  0  0  0  0  0  0  0  0
   53.4773   31.4703   27.8737 C   0  0  0  0  0  0  0  0  0  0  0  0
   54.7045   31.9909   27.5176 C   0  0  0  0  0  0  0  0  0  0  0  0
   55.3109   31.5286   26.3669 C   0  0  0  0  0  0  0  0  0  0  0  0
   54.7089   30.5527   25.5657 C   0  0  0  0  0  0  0  0  0  0  0  0
   55.4456   30.1232   24.3469 C   0  0  0  0  0  0  0  0  0  0  0  0
   56.3233   29.0160   24.5985 N   0  0  0  0  0  0  0  0  0  0  0  0
   57.7122   29.2432   24.4778 C   0  0  0  0  0  0  0  0  0  0  0  0
   58.2806   30.2853   23.6502 C   0  0  0  0  0  0  0  0  0  0  0  0
   58.2897   30.3975   22.1946 C   0  0  0  0  0  0  0  0  0  0  0  0
   57.0712   30.3572   21.4822 N   0  0  0  0  0  0  0  0  0  0  0  0
   56.2132   29.2817   21.2419 C   0  0  0  0  0  0  0  0  0  0  0  0
   56.4723   28.1281   21.6174 O   0  0  0  0  0  0  0  0  0  0  0  0
   54.9748   29.4667   20.5393 N   0  0  0  0  0  0  0  0  0  0  0  0
   54.1244   28.3105   20.3197 C   0  0  0  0  0  0  0  0  0  0  0  0
   54.1816   27.5057   19.2595 C   0  0  0  0  0  0  0  0  0  0  0  0
   53.3393   26.4623   19.1660 C   0  0  0  0  0  0  0  0  0  0  0  0
   52.3236   26.5316   20.6703 S   0  0  0  0  0  0  0  0  0  0  0  0
   53.1621   27.9958   21.2817 C   0  0  0  0  0  0  0  0  0  0  0  0
   53.4802   30.0290   25.9189 C   0  0  0  0  0  0  0  0  0  0  0  0
  1  2  3  0
  2  3  1  0
  3  4  2  0
  4  5  1  0
  5  6  2  0
  6  7  1  0
  7  8  1  0
  8  9  1  0
  9 10  1  0
 10 11  1  0
 11 12  1  0
 12 13  1  0
 13 14  1  0
 14 15  2  0
 14 16  1  0
 16 17  1  0
 17 18  1  0
 18 19  2  0
 19 20  1  0
 20 21  1  0
  7 22  2  0
 22  3  1  0
 21 17  2  0
M  CHG  1   9   1
M  END
>  <shape_align_shape_tanimoto>  (1) 
0.70574443758452177

>  <shape_align_color_tanimoto>  (1) 
0.019473888963951573

>  <metric>  (1) 
shape

>  <metric_score>  (1) 
0.706

>  <template_pid>  (1) 
4MW9

>  <template_shape_score>  (1) 
0.706

>  <template_color_score>  (1) 
0.019

>  <template_combo_score>  (1) 
0.363

$$$$
4MW9_color_pose
     RDKit          3D

 22 23  0  0  0  0  0  0  0  0999 V2000
   57.4250   30.2290   19.5517 C   0  0  0  0  0  0  0  0  0  0  0  0
   57.5617   30.1763   20.7624 C   0  0  0  0  0  0  0  0  0  0  0  0
   57.7015   30.1255   22.1952 C   0  0  0  0  0  0  0  0  0  0  0  0
   58.8683   30.5734   22.7942 C   0  0  0  0  0  0  0  0  0  0  0  0
   59.0315   30.5385   24.1474 C   0  0  0  0  0  0  0  0  0  0  0  0
   58.0140   30.0472   24.9373 C   0  0  0  0  0  0  0  0  0  0  0  0
   56.8237   29.5853   24.3915 C   0  0  0  0  0  0  0  0  0  0  0  0
   55.7195   29.0525   25.2442 C   0  0  0  0  0  0  0  0  0  0  0  0
   54.7857   30.0684   25.6608 N   0  0  0  0  0  0  0  0  0  0  0  0
   53.7065   30.2760   24.7493 C   0  0  0  0  0  0  0  0  0  0  0  0
   52.5899   29.2629   24.8538 C   0  0  0  0  0  0  0  0  0  0  0  0
   51.4843   29.5410   23.8639 C   0  0  0  0  0  0  0  0  0  0  0  0
   51.8853   29.5247   22.4929 N   0  0  0  0  0  0  0  0  0  0  0  0
   52.4445   28.3224   21.9236 C   0  0  0  0  0  0  0  0  0  0  0  0
   52.5361   27.3508   22.7011 O   0  0  0  0  0  0  0  0  0  0  0  0
   52.8336   28.3311   20.5769 N   0  0  0  0  0  0  0  0  0  0  0  0
   53.4063   27.1665   19.9181 C   0  0  0  0  0  0  0  0  0  0  0  0
   53.7686   27.2044   18.6295 C   0  0  0  0  0  0  0  0  0  0  0  0
   54.3063   26.0332   18.0984 C   0  0  0  0  0  0  0  0  0  0  0  0
   54.2974   24.8521   19.4575 S   0  0  0  0  0  0  0  0  0  0  0  0
   53.5882   25.9964   20.6087 C   0  0  0  0  0  0  0  0  0  0  0  0
   56.6915   29.6352   23.0128 C   0  0  0  0  0  0  0  0  0  0  0  0
  1  2  3  0
  2  3  1  0
  3  4  2  0
  4  5  1  0
  5  6  2  0
  6  7  1  0
  7  8  1  0
  8  9  1  0
  9 10  1  0
 10 11  1  0
 11 12  1  0
 12 13  1  0
 13 14  1  0
 14 15  2  0
 14 16  1  0
 16 17  1  0
 17 18  1  0
 18 19  2  0
 19 20  1  0
 20 21  1  0
  7 22  2  0
 22  3  1  0
 21 17  2  0
M  CHG  1   9   1
M  END
>  <shape_align_shape_tanimoto>  (2) 
0.47388881413680739

>  <shape_align_color_tanimoto>  (2) 
0.086375093119992002

>  <metric>  (2) 
color

>  <metric_score>  (2) 
0.086

>  <template_pid>  (2) 
4MW9

>  <template_shape_score>  (2) 
0.474

>  <template_color_score>  (2) 
0.086

>  <template_combo_score>  (2) 
0.280

$$$$
4MW9_combo_pose
     RDKit          3D

 22 23  0  0  0  0  0  0  0  0999 V2000
   54.6100   24.5462   17.1495 C   0  0  0  0  0  0  0  0  0  0  0  0
   54.4135   25.3761   18.0084 C   0  0  0  0  0  0  0  0  0  0  0  0
   54.1965   26.3562   19.0376 C   0  0  0  0  0  0  0  0  0  0  0  0
   53.7990   25.8925   20.2882 C   0  0  0  0  0  0  0  0  0  0  0  0
   53.5780   26.7951   21.3095 C   0  0  0  0  0  0  0  0  0  0  0  0
   53.7512   28.1444   21.0867 C   0  0  0  0  0  0  0  0  0  0  0  0
   54.1491   28.6345   19.8422 C   0  0  0  0  0  0  0  0  0  0  0  0
   54.3304   30.0940   19.6219 C   0  0  0  0  0  0  0  0  0  0  0  0
   55.6615   30.5182   19.9061 N   0  0  0  0  0  0  0  0  0  0  0  0
   56.3550   29.7958   20.9237 C   0  0  0  0  0  0  0  0  0  0  0  0
   56.2068   30.3861   22.3167 C   0  0  0  0  0  0  0  0  0  0  0  0
   56.9587   29.5793   23.3363 C   0  0  0  0  0  0  0  0  0  0  0  0
   56.8010   30.1702   24.6435 N   0  0  0  0  0  0  0  0  0  0  0  0
   55.5430   30.3092   25.2987 C   0  0  0  0  0  0  0  0  0  0  0  0
   54.5458   29.8744   24.6811 O   0  0  0  0  0  0  0  0  0  0  0  0
   55.5262   30.9139   26.5652 N   0  0  0  0  0  0  0  0  0  0  0  0
   54.3094   31.1137   27.3360 C   0  0  0  0  0  0  0  0  0  0  0  0
   53.0719   30.7623   26.9606 C   0  0  0  0  0  0  0  0  0  0  0  0
   52.0333   31.0047   27.7699 C   0  0  0  0  0  0  0  0  0  0  0  0
   52.7081   31.8048   29.2476 S   0  0  0  0  0  0  0  0  0  0  0  0
   54.4285   31.7220   28.5741 C   0  0  0  0  0  0  0  0  0  0  0  0
   54.3700   27.7174   18.8173 C   0  0  0  0  0  0  0  0  0  0  0  0
  1  2  3  0
  2  3  1  0
  3  4  2  0
  4  5  1  0
  5  6  2  0
  6  7  1  0
  7  8  1  0
  8  9  1  0
  9 10  1  0
 10 11  1  0
 11 12  1  0
 12 13  1  0
 13 14  1  0
 14 15  2  0
 14 16  1  0
 16 17  1  0
 17 18  1  0
 18 19  2  0
 19 20  1  0
 20 21  1  0
  7 22  2  0
 22  3  1  0
 21 17  2  0
M  CHG  1   9   1
M  END
>  <shape_align_shape_tanimoto>  (3) 
0.68323241974729243

>  <shape_align_color_tanimoto>  (3) 
0.055579176549499718

>  <metric>  (3) 
combo

>  <metric_score>  (3) 
0.369

>  <template_pid>  (3) 
4MW9

>  <template_shape_score>  (3) 
0.683

>  <template_color_score>  (3) 
0.056

>  <template_combo_score>  (3) 
0.369

$$$$
