2HRP_shape_pose
     RDKit          3D

 80 83  0  0  0  0  0  0  0  0999 V2000
  -28.9534   46.0701  -17.5375 C   0  0  0  0  0  0  0  0  0  0  0  0
  -28.7223   47.1268  -18.9946 S   0  0  0  0  0  0  0  0  0  0  0  0
  -30.2967   47.9427  -19.3535 C   0  0  0  0  0  0  0  0  0  0  0  0
  -30.2079   48.8307  -20.5746 C   0  0  0  0  0  0  0  0  0  0  0  0
  -29.8091   48.0371  -21.8082 C   0  0  2  0  0  0  0  0  0  0  0  0
  -30.7456   47.0016  -22.1112 N   0  0  0  0  0  0  0  0  0  0  0  0
  -28.4152   47.4856  -21.6287 C   0  0  0  0  0  0  0  0  0  0  0  0
  -28.2718   46.2292  -21.6683 O   0  0  0  0  0  0  0  0  0  0  0  0
  -27.3310   48.3832  -21.4232 N   0  0  0  0  0  0  0  0  0  0  0  0
  -26.0131   47.7587  -21.2423 C   0  0  1  0  0  0  0  0  0  0  0  0
  -25.1545   48.0283  -22.4691 C   0  0  0  0  0  0  0  0  0  0  0  0
  -25.7968   47.4779  -23.5706 O   0  0  0  0  0  0  0  0  0  0  0  0
  -25.4379   48.4003  -20.0399 C   0  0  0  0  0  0  0  0  0  0  0  0
  -26.1045   49.3711  -19.5384 O   0  0  0  0  0  0  0  0  0  0  0  0
  -24.2235   48.0140  -19.4232 N   0  0  0  0  0  0  0  0  0  0  0  0
  -23.7923   48.7708  -18.2275 C   0  0  1  0  0  0  0  0  0  0  0  0
  -24.5424   48.1562  -17.0272 C   0  0  0  0  0  0  0  0  0  0  0  0
  -24.2801   46.6969  -16.8558 C   0  0  0  0  0  0  0  0  0  0  0  0
  -25.0656   46.1094  -15.6722 C   0  0  0  0  0  0  0  0  0  0  0  0
  -22.8380   46.3606  -16.5851 C   0  0  0  0  0  0  0  0  0  0  0  0
  -22.3701   48.9023  -18.0771 C   0  0  0  0  0  0  0  0  0  0  0  0
  -21.6063   48.1513  -18.7743 O   0  0  0  0  0  0  0  0  0  0  0  0
  -21.7112   49.8129  -17.2154 N   0  0  0  0  0  0  0  0  0  0  0  0
  -22.3090   50.8006  -16.3373 C   0  0  0  0  0  0  0  0  0  0  0  0
  -21.5341   52.0524  -16.6345 C   0  0  0  0  0  0  0  0  0  0  0  0
  -20.2559   51.6044  -17.2897 C   0  0  0  0  0  0  0  0  0  0  0  0
  -20.2750   50.0539  -17.0392 C   0  0  1  0  0  0  0  0  0  0  0  0
  -19.7803   49.9000  -15.6614 C   0  0  0  0  0  0  0  0  0  0  0  0
  -20.4185   49.4282  -14.6950 O   0  0  0  0  0  0  0  0  0  0  0  0
  -18.4301   50.3570  -15.4289 N   0  0  0  0  0  0  0  0  0  0  0  0
  -17.7528   50.3598  -14.2047 C   0  0  0  0  0  0  0  0  0  0  0  0
  -17.4959   49.1027  -13.4794 C   0  0  0  0  0  0  0  0  0  0  0  0
  -16.8934   49.2836  -12.3493 O   0  0  0  0  0  0  0  0  0  0  0  0
  -17.8387   47.8063  -13.8978 N   0  0  0  0  0  0  0  0  0  0  0  0
  -17.5992   46.5682  -13.1993 C   0  0  1  0  0  0  0  0  0  0  0  0
  -16.4440   46.5798  -12.2581 C   0  0  0  0  0  0  0  0  0  0  0  0
  -15.1343   46.8497  -12.9255 C   0  0  0  0  0  0  0  0  0  0  0  0
  -14.7453   45.8087  -13.9701 C   0  0  0  0  0  0  0  0  0  0  0  0
  -13.4373   46.1707  -14.5338 N   0  0  0  0  0  0  0  0  0  0  0  0
  -12.8043   45.3558  -15.5282 C   0  0  0  0  0  0  0  0  0  0  0  0
  -11.5414   45.7994  -16.0106 N   0  0  0  0  0  0  0  0  0  0  0  0
  -13.3727   44.2790  -15.9513 N   0  0  0  0  0  0  0  0  0  0  0  0
  -18.8242   46.0109  -12.6450 C   0  0  0  0  0  0  0  0  0  0  0  0
  -19.9136   46.6126  -12.9366 O   0  0  0  0  0  0  0  0  0  0  0  0
  -18.9571   44.8756  -11.8086 N   0  0  0  0  0  0  0  0  0  0  0  0
  -20.3507   44.5852  -11.4066 C   0  0  1  0  0  0  0  0  0  0  0  0
  -20.9266   45.5875  -10.5225 C   0  0  0  0  0  0  0  0  0  0  0  0
  -22.3173   45.3411  -10.1271 C   0  0  0  0  0  0  0  0  0  0  0  0
  -22.7381   44.5867   -9.0324 C   0  0  0  0  0  0  0  0  0  0  0  0
  -24.0704   44.5400   -9.0055 N   0  0  0  0  0  0  0  0  0  0  0  0
  -24.5849   45.2306  -10.0336 C   0  0  0  0  0  0  0  0  0  0  0  0
  -25.8925   45.5029  -10.4249 C   0  0  0  0  0  0  0  0  0  0  0  0
  -26.1731   46.2843  -11.5248 C   0  0  0  0  0  0  0  0  0  0  0  0
  -25.0885   46.7845  -12.2223 C   0  0  0  0  0  0  0  0  0  0  0  0
  -23.7975   46.5188  -11.8432 C   0  0  0  0  0  0  0  0  0  0  0  0
  -23.5076   45.7315  -10.7349 C   0  0  0  0  0  0  0  0  0  0  0  0
  -21.0749   43.9642  -12.4990 C   0  0  0  0  0  0  0  0  0  0  0  0
  -22.2949   43.8918  -12.6889 O   0  0  0  0  0  0  0  0  0  0  0  0
  -20.2483   43.3225  -13.5156 N   0  0  0  0  0  0  0  0  0  0  0  0
  -20.7663   42.6749  -14.6601 C   0  0  1  0  0  0  0  0  0  0  0  0
  -19.7960   42.8462  -15.8381 C   0  0  0  0  0  0  0  0  0  0  0  0
  -19.5738   44.2826  -16.1644 C   0  0  0  0  0  0  0  0  0  0  0  0
  -18.6157   44.5016  -17.3377 C   0  0  0  0  0  0  0  0  0  0  0  0
  -19.1360   43.8675  -18.5844 C   0  0  0  0  0  0  0  0  0  0  0  0
  -18.3019   44.0292  -19.7426 N   0  0  0  0  0  0  0  0  0  0  0  0
  -20.9487   41.2345  -14.4374 C   0  0  0  0  0  0  0  0  0  0  0  0
  -21.4124   40.5991  -15.4819 O   0  0  0  0  0  0  0  0  0  0  0  0
  -20.7245   40.4099  -13.3303 N   0  0  0  0  0  0  0  0  0  0  0  0
  -21.0129   38.9436  -13.4692 C   0  0  0  0  0  0  0  0  0  0  0  0
  -21.6847   38.6931  -12.1258 C   0  0  0  0  0  0  0  0  0  0  0  0
  -20.6353   39.3469  -11.2140 C   0  0  0  0  0  0  0  0  0  0  0  0
  -20.2515   40.6258  -11.9899 C   0  0  1  0  0  0  0  0  0  0  0  0
  -18.7655   40.8066  -11.9122 C   0  0  0  0  0  0  0  0  0  0  0  0
  -18.0401   40.8151  -12.9274 O   0  0  0  0  0  0  0  0  0  0  0  0
  -18.2528   40.9646  -10.5762 N   0  0  0  0  0  0  0  0  0  0  0  0
  -16.8525   41.1449  -10.2901 C   0  0  1  0  0  0  0  0  0  0  0  0
  -16.6598   42.3430   -9.4012 C   0  0  0  0  0  0  0  0  0  0  0  0
  -16.4025   39.9485   -9.4861 C   0  0  0  0  0  0  0  0  0  0  0  0
  -17.2236   39.1633   -8.9496 O   0  0  0  0  0  0  0  0  0  0  0  0
  -15.0254   39.7426   -9.3583 O   0  0  0  0  0  0  0  0  0  0  0  0
  1  2  1  0
  2  3  1  0
  3  4  1  0
  4  5  1  0
  5  6  1  1
  5  7  1  0
  7  8  2  0
  7  9  1  0
  9 10  1  0
 10 11  1  6
 11 12  1  0
 10 13  1  0
 13 14  2  0
 13 15  1  0
 15 16  1  0
 16 17  1  1
 17 18  1  0
 18 19  1  0
 18 20  1  0
 16 21  1  0
 21 22  2  0
 21 23  1  0
 23 24  1  0
 24 25  1  0
 25 26  1  0
 26 27  1  0
 27 28  1  1
 28 29  2  0
 28 30  1  0
 30 31  1  0
 31 32  1  0
 32 33  2  0
 32 34  1  0
 34 35  1  0
 35 36  1  1
 36 37  1  0
 37 38  1  0
 38 39  1  0
 39 40  1  0
 40 41  1  0
 40 42  2  0
 35 43  1  0
 43 44  2  0
 43 45  1  0
 45 46  1  0
 46 47  1  6
 47 48  1  0
 48 49  2  0
 49 50  1  0
 50 51  1  0
 51 52  2  0
 52 53  1  0
 53 54  2  0
 54 55  1  0
 55 56  2  0
 46 57  1  0
 57 58  2  0
 57 59  1  0
 59 60  1  0
 60 61  1  6
 61 62  1  0
 62 63  1  0
 63 64  1  0
 64 65  1  0
 60 66  1  0
 66 67  2  0
 66 68  1  0
 68 69  1  0
 69 70  1  0
 70 71  1  0
 71 72  1  0
 72 73  1  6
 73 74  2  0
 73 75  1  0
 75 76  1  0
 76 77  1  1
 76 78  1  0
 78 79  2  0
 78 80  1  0
 27 23  1  0
 56 48  1  0
 72 68  1  0
 56 51  1  0
M  CHG  4   6   1  42   1  65   1  80  -1
M  END
>  <shape_align_shape_tanimoto>  (1) 
0.25517677473938588

>  <shape_align_color_tanimoto>  (1) 
0.0046581799962312036

>  <metric>  (1) 
shape

>  <metric_score>  (1) 
0.255

>  <template_pid>  (1) 
2HRP

>  <template_shape_score>  (1) 
0.255

>  <template_color_score>  (1) 
0.005

>  <template_combo_score>  (1) 
0.130

$$$$
2HRP_color_pose
     RDKit          3D

 80 83  0  0  0  0  0  0  0  0999 V2000
  -19.0398   49.7734  -10.9345 C   0  0  0  0  0  0  0  0  0  0  0  0
  -18.7244   51.0477   -9.7026 S   0  0  0  0  0  0  0  0  0  0  0  0
  -19.3737   50.6671   -8.0787 C   0  0  0  0  0  0  0  0  0  0  0  0
  -20.9057   50.6414   -8.0768 C   0  0  0  0  0  0  0  0  0  0  0  0
  -21.3762   50.3210   -6.6722 C   0  0  2  0  0  0  0  0  0  0  0  0
  -20.8544   49.0362   -6.3053 N   0  0  0  0  0  0  0  0  0  0  0  0
  -22.8403   50.3528   -6.6177 C   0  0  0  0  0  0  0  0  0  0  0  0
  -23.5525   49.3661   -6.2935 O   0  0  0  0  0  0  0  0  0  0  0  0
  -23.4710   51.6061   -6.9598 N   0  0  0  0  0  0  0  0  0  0  0  0
  -24.9121   51.7335   -6.9205 C   0  0  1  0  0  0  0  0  0  0  0  0
  -25.2841   52.6208   -5.7329 C   0  0  0  0  0  0  0  0  0  0  0  0
  -26.6905   52.7745   -5.6654 O   0  0  0  0  0  0  0  0  0  0  0  0
  -25.5336   52.1871   -8.1665 C   0  0  0  0  0  0  0  0  0  0  0  0
  -26.8094   52.3702   -8.1182 O   0  0  0  0  0  0  0  0  0  0  0  0
  -24.8573   52.4299   -9.3980 N   0  0  0  0  0  0  0  0  0  0  0  0
  -25.6677   52.8755  -10.5134 C   0  0  1  0  0  0  0  0  0  0  0  0
  -25.1091   53.9509  -11.3589 C   0  0  0  0  0  0  0  0  0  0  0  0
  -23.8462   53.7130  -12.0825 C   0  0  0  0  0  0  0  0  0  0  0  0
  -22.6139   53.4211  -11.2844 C   0  0  0  0  0  0  0  0  0  0  0  0
  -23.5137   54.9473  -12.9354 C   0  0  0  0  0  0  0  0  0  0  0  0
  -26.0315   51.6633  -11.3453 C   0  0  0  0  0  0  0  0  0  0  0  0
  -25.4163   50.6023  -10.9643 O   0  0  0  0  0  0  0  0  0  0  0  0
  -26.9379   51.6630  -12.4167 N   0  0  0  0  0  0  0  0  0  0  0  0
  -27.7554   52.6727  -13.0398 C   0  0  0  0  0  0  0  0  0  0  0  0
  -29.0069   52.0076  -13.5640 C   0  0  0  0  0  0  0  0  0  0  0  0
  -28.8214   50.5596  -13.1758 C   0  0  0  0  0  0  0  0  0  0  0  0
  -27.2579   50.4392  -13.1456 C   0  0  1  0  0  0  0  0  0  0  0  0
  -26.8905   50.4197  -14.5595 C   0  0  0  0  0  0  0  0  0  0  0  0
  -27.0025   51.4178  -15.3173 O   0  0  0  0  0  0  0  0  0  0  0  0
  -26.3705   49.1765  -15.1009 N   0  0  0  0  0  0  0  0  0  0  0  0
  -26.0209   49.0068  -16.4768 C   0  0  0  0  0  0  0  0  0  0  0  0
  -25.3801   47.6947  -16.8046 C   0  0  0  0  0  0  0  0  0  0  0  0
  -25.2253   47.5107  -18.0599 O   0  0  0  0  0  0  0  0  0  0  0  0
  -24.9687   46.7480  -15.8852 N   0  0  0  0  0  0  0  0  0  0  0  0
  -24.3658   45.4494  -15.9973 C   0  0  1  0  0  0  0  0  0  0  0  0
  -24.1754   45.3251  -17.5839 C   0  0  0  0  0  0  0  0  0  0  0  0
  -23.4993   44.0393  -17.8475 C   0  0  0  0  0  0  0  0  0  0  0  0
  -24.2239   42.8239  -17.4035 C   0  0  0  0  0  0  0  0  0  0  0  0
  -23.3759   41.6666  -17.7534 N   0  0  0  0  0  0  0  0  0  0  0  0
  -23.7421   40.3396  -17.4549 C   0  0  0  0  0  0  0  0  0  0  0  0
  -22.8244   39.3014  -17.8504 N   0  0  0  0  0  0  0  0  0  0  0  0
  -24.8422   40.0643  -16.8591 N   0  0  0  0  0  0  0  0  0  0  0  0
  -23.0197   45.3448  -15.4582 C   0  0  0  0  0  0  0  0  0  0  0  0
  -22.2394   46.3508  -15.6309 O   0  0  0  0  0  0  0  0  0  0  0  0
  -22.4899   44.2148  -14.7509 N   0  0  0  0  0  0  0  0  0  0  0  0
  -21.1015   44.3079  -14.3638 C   0  0  1  0  0  0  0  0  0  0  0  0
  -20.8782   45.2611  -13.1968 C   0  0  0  0  0  0  0  0  0  0  0  0
  -21.5263   44.9973  -11.9384 C   0  0  0  0  0  0  0  0  0  0  0  0
  -20.8634   44.3717  -10.8554 C   0  0  0  0  0  0  0  0  0  0  0  0
  -21.7034   44.2459   -9.8282 N   0  0  0  0  0  0  0  0  0  0  0  0
  -22.8812   44.7428  -10.1416 C   0  0  0  0  0  0  0  0  0  0  0  0
  -24.0607   44.8618   -9.4307 C   0  0  0  0  0  0  0  0  0  0  0  0
  -25.1924   45.4449   -9.9687 C   0  0  0  0  0  0  0  0  0  0  0  0
  -25.0606   45.9057  -11.2795 C   0  0  0  0  0  0  0  0  0  0  0  0
  -23.8892   45.7889  -11.9910 C   0  0  0  0  0  0  0  0  0  0  0  0
  -22.7914   45.2091  -11.4363 C   0  0  0  0  0  0  0  0  0  0  0  0
  -20.4747   42.9970  -14.1053 C   0  0  0  0  0  0  0  0  0  0  0  0
  -19.4179   42.7188  -14.7166 O   0  0  0  0  0  0  0  0  0  0  0  0
  -21.0867   42.0867  -13.1527 N   0  0  0  0  0  0  0  0  0  0  0  0
  -20.5631   40.8186  -12.8247 C   0  0  1  0  0  0  0  0  0  0  0  0
  -19.4658   40.9328  -11.7272 C   0  0  0  0  0  0  0  0  0  0  0  0
  -18.3017   41.7709  -12.1265 C   0  0  0  0  0  0  0  0  0  0  0  0
  -17.2719   41.8001  -10.9701 C   0  0  0  0  0  0  0  0  0  0  0  0
  -16.0885   42.6540  -11.3756 C   0  0  0  0  0  0  0  0  0  0  0  0
  -15.4510   42.1054  -12.5531 N   0  0  0  0  0  0  0  0  0  0  0  0
  -21.4492   39.7782  -12.3003 C   0  0  0  0  0  0  0  0  0  0  0  0
  -20.9159   38.5872  -12.3120 O   0  0  0  0  0  0  0  0  0  0  0  0
  -22.7697   39.8930  -11.7889 N   0  0  0  0  0  0  0  0  0  0  0  0
  -23.6225   41.0470  -11.6281 C   0  0  0  0  0  0  0  0  0  0  0  0
  -24.7961   40.4912  -10.7876 C   0  0  0  0  0  0  0  0  0  0  0  0
  -24.1598   39.3081  -10.0667 C   0  0  0  0  0  0  0  0  0  0  0  0
  -23.4555   38.6767  -11.2815 C   0  0  1  0  0  0  0  0  0  0  0  0
  -24.4506   38.1810  -12.2408 C   0  0  0  0  0  0  0  0  0  0  0  0
  -24.7659   38.7151  -13.3238 O   0  0  0  0  0  0  0  0  0  0  0  0
  -25.1152   36.9480  -11.8636 N   0  0  0  0  0  0  0  0  0  0  0  0
  -26.1226   36.3288  -12.6886 C   0  0  1  0  0  0  0  0  0  0  0  0
  -25.6522   34.9088  -13.0010 C   0  0  0  0  0  0  0  0  0  0  0  0
  -27.3793   36.1414  -11.8807 C   0  0  0  0  0  0  0  0  0  0  0  0
  -28.4675   35.8050  -12.4052 O   0  0  0  0  0  0  0  0  0  0  0  0
  -27.3270   36.3494  -10.5092 O   0  0  0  0  0  0  0  0  0  0  0  0
  1  2  1  0
  2  3  1  0
  3  4  1  0
  4  5  1  0
  5  6  1  6
  5  7  1  0
  7  8  2  0
  7  9  1  0
  9 10  1  0
 10 11  1  1
 11 12  1  0
 10 13  1  0
 13 14  2  0
 13 15  1  0
 15 16  1  0
 16 17  1  6
 17 18  1  0
 18 19  1  0
 18 20  1  0
 16 21  1  0
 21 22  2  0
 21 23  1  0
 23 24  1  0
 24 25  1  0
 25 26  1  0
 26 27  1  0
 27 28  1  6
 28 29  2  0
 28 30  1  0
 30 31  1  0
 31 32  1  0
 32 33  2  0
 32 34  1  0
 34 35  1  0
 35 36  1  6
 36 37  1  0
 37 38  1  0
 38 39  1  0
 39 40  1  0
 40 41  1  0
 40 42  2  0
 35 43  1  0
 43 44  2  0
 43 45  1  0
 45 46  1  0
 46 47  1  1
 47 48  1  0
 48 49  2  0
 49 50  1  0
 50 51  1  0
 51 52  2  0
 52 53  1  0
 53 54  2  0
 54 55  1  0
 55 56  2  0
 46 57  1  0
 57 58  2  0
 57 59  1  0
 59 60  1  0
 60 61  1  1
 61 62  1  0
 62 63  1  0
 63 64  1  0
 64 65  1  0
 60 66  1  0
 66 67  2  0
 66 68  1  0
 68 69  1  0
 69 70  1  0
 70 71  1  0
 71 72  1  0
 72 73  1  6
 73 74  2  0
 73 75  1  0
 75 76  1  0
 76 77  1  1
 76 78  1  0
 78 79  2  0
 78 80  1  0
 27 23  1  0
 56 48  1  0
 72 68  1  0
 56 51  1  0
M  CHG  4   6   1  42   1  65   1  80  -1
M  END
>  <shape_align_shape_tanimoto>  (2) 
0.23493987759807744

>  <shape_align_color_tanimoto>  (2) 
0.035838821945970073

>  <metric>  (2) 
color

>  <metric_score>  (2) 
0.036

>  <template_pid>  (2) 
2HRP

>  <template_shape_score>  (2) 
0.235

>  <template_color_score>  (2) 
0.036

>  <template_combo_score>  (2) 
0.135

$$$$
2HRP_combo_pose
     RDKit          3D

 80 83  0  0  0  0  0  0  0  0999 V2000
  -19.0398   49.7734  -10.9345 C   0  0  0  0  0  0  0  0  0  0  0  0
  -18.7244   51.0477   -9.7026 S   0  0  0  0  0  0  0  0  0  0  0  0
  -19.3737   50.6671   -8.0787 C   0  0  0  0  0  0  0  0  0  0  0  0
  -20.9057   50.6414   -8.0768 C   0  0  0  0  0  0  0  0  0  0  0  0
  -21.3762   50.3210   -6.6722 C   0  0  2  0  0  0  0  0  0  0  0  0
  -20.8544   49.0362   -6.3053 N   0  0  0  0  0  0  0  0  0  0  0  0
  -22.8403   50.3528   -6.6177 C   0  0  0  0  0  0  0  0  0  0  0  0
  -23.5525   49.3661   -6.2935 O   0  0  0  0  0  0  0  0  0  0  0  0
  -23.4710   51.6061   -6.9598 N   0  0  0  0  0  0  0  0  0  0  0  0
  -24.9121   51.7335   -6.9205 C   0  0  1  0  0  0  0  0  0  0  0  0
  -25.2841   52.6208   -5.7329 C   0  0  0  0  0  0  0  0  0  0  0  0
  -26.6905   52.7745   -5.6654 O   0  0  0  0  0  0  0  0  0  0  0  0
  -25.5336   52.1871   -8.1665 C   0  0  0  0  0  0  0  0  0  0  0  0
  -26.8094   52.3702   -8.1182 O   0  0  0  0  0  0  0  0  0  0  0  0
  -24.8573   52.4299   -9.3980 N   0  0  0  0  0  0  0  0  0  0  0  0
  -25.6677   52.8755  -10.5134 C   0  0  1  0  0  0  0  0  0  0  0  0
  -25.1091   53.9509  -11.3589 C   0  0  0  0  0  0  0  0  0  0  0  0
  -23.8462   53.7130  -12.0825 C   0  0  0  0  0  0  0  0  0  0  0  0
  -22.6139   53.4211  -11.2844 C   0  0  0  0  0  0  0  0  0  0  0  0
  -23.5137   54.9473  -12.9354 C   0  0  0  0  0  0  0  0  0  0  0  0
  -26.0315   51.6633  -11.3453 C   0  0  0  0  0  0  0  0  0  0  0  0
  -25.4163   50.6023  -10.9643 O   0  0  0  0  0  0  0  0  0  0  0  0
  -26.9379   51.6630  -12.4167 N   0  0  0  0  0  0  0  0  0  0  0  0
  -27.7554   52.6727  -13.0398 C   0  0  0  0  0  0  0  0  0  0  0  0
  -29.0069   52.0076  -13.5640 C   0  0  0  0  0  0  0  0  0  0  0  0
  -28.8214   50.5596  -13.1758 C   0  0  0  0  0  0  0  0  0  0  0  0
  -27.2579   50.4392  -13.1456 C   0  0  1  0  0  0  0  0  0  0  0  0
  -26.8905   50.4197  -14.5595 C   0  0  0  0  0  0  0  0  0  0  0  0
  -27.0025   51.4178  -15.3173 O   0  0  0  0  0  0  0  0  0  0  0  0
  -26.3705   49.1765  -15.1009 N   0  0  0  0  0  0  0  0  0  0  0  0
  -26.0209   49.0068  -16.4768 C   0  0  0  0  0  0  0  0  0  0  0  0
  -25.3801   47.6947  -16.8046 C   0  0  0  0  0  0  0  0  0  0  0  0
  -25.2253   47.5107  -18.0599 O   0  0  0  0  0  0  0  0  0  0  0  0
  -24.9687   46.7480  -15.8852 N   0  0  0  0  0  0  0  0  0  0  0  0
  -24.3658   45.4494  -15.9973 C   0  0  1  0  0  0  0  0  0  0  0  0
  -24.1754   45.3251  -17.5839 C   0  0  0  0  0  0  0  0  0  0  0  0
  -23.4993   44.0393  -17.8475 C   0  0  0  0  0  0  0  0  0  0  0  0
  -24.2239   42.8239  -17.4035 C   0  0  0  0  0  0  0  0  0  0  0  0
  -23.3759   41.6666  -17.7534 N   0  0  0  0  0  0  0  0  0  0  0  0
  -23.7421   40.3396  -17.4549 C   0  0  0  0  0  0  0  0  0  0  0  0
  -22.8244   39.3014  -17.8504 N   0  0  0  0  0  0  0  0  0  0  0  0
  -24.8422   40.0643  -16.8591 N   0  0  0  0  0  0  0  0  0  0  0  0
  -23.0197   45.3448  -15.4582 C   0  0  0  0  0  0  0  0  0  0  0  0
  -22.2394   46.3508  -15.6309 O   0  0  0  0  0  0  0  0  0  0  0  0
  -22.4899   44.2148  -14.7509 N   0  0  0  0  0  0  0  0  0  0  0  0
  -21.1015   44.3079  -14.3638 C   0  0  1  0  0  0  0  0  0  0  0  0
  -20.8782   45.2611  -13.1968 C   0  0  0  0  0  0  0  0  0  0  0  0
  -21.5263   44.9973  -11.9384 C   0  0  0  0  0  0  0  0  0  0  0  0
  -20.8634   44.3717  -10.8554 C   0  0  0  0  0  0  0  0  0  0  0  0
  -21.7034   44.2459   -9.8282 N   0  0  0  0  0  0  0  0  0  0  0  0
  -22.8812   44.7428  -10.1416 C   0  0  0  0  0  0  0  0  0  0  0  0
  -24.0607   44.8618   -9.4307 C   0  0  0  0  0  0  0  0  0  0  0  0
  -25.1924   45.4449   -9.9687 C   0  0  0  0  0  0  0  0  0  0  0  0
  -25.0606   45.9057  -11.2795 C   0  0  0  0  0  0  0  0  0  0  0  0
  -23.8892   45.7889  -11.9910 C   0  0  0  0  0  0  0  0  0  0  0  0
  -22.7914   45.2091  -11.4363 C   0  0  0  0  0  0  0  0  0  0  0  0
  -20.4747   42.9970  -14.1053 C   0  0  0  0  0  0  0  0  0  0  0  0
  -19.4179   42.7188  -14.7166 O   0  0  0  0  0  0  0  0  0  0  0  0
  -21.0867   42.0867  -13.1527 N   0  0  0  0  0  0  0  0  0  0  0  0
  -20.5631   40.8186  -12.8247 C   0  0  1  0  0  0  0  0  0  0  0  0
  -19.4658   40.9328  -11.7272 C   0  0  0  0  0  0  0  0  0  0  0  0
  -18.3017   41.7709  -12.1265 C   0  0  0  0  0  0  0  0  0  0  0  0
  -17.2719   41.8001  -10.9701 C   0  0  0  0  0  0  0  0  0  0  0  0
  -16.0885   42.6540  -11.3756 C   0  0  0  0  0  0  0  0  0  0  0  0
  -15.4510   42.1054  -12.5531 N   0  0  0  0  0  0  0  0  0  0  0  0
  -21.4492   39.7782  -12.3003 C   0  0  0  0  0  0  0  0  0  0  0  0
  -20.9159   38.5872  -12.3120 O   0  0  0  0  0  0  0  0  0  0  0  0
  -22.7697   39.8930  -11.7889 N   0  0  0  0  0  0  0  0  0  0  0  0
  -23.6225   41.0470  -11.6281 C   0  0  0  0  0  0  0  0  0  0  0  0
  -24.7961   40.4912  -10.7876 C   0  0  0  0  0  0  0  0  0  0  0  0
  -24.1598   39.3081  -10.0667 C   0  0  0  0  0  0  0  0  0  0  0  0
  -23.4555   38.6767  -11.2815 C   0  0  1  0  0  0  0  0  0  0  0  0
  -24.4506   38.1810  -12.2408 C   0  0  0  0  0  0  0  0  0  0  0  0
  -24.7659   38.7151  -13.3238 O   0  0  0  0  0  0  0  0  0  0  0  0
  -25.1152   36.9480  -11.8636 N   0  0  0  0  0  0  0  0  0  0  0  0
  -26.1226   36.3288  -12.6886 C   0  0  1  0  0  0  0  0  0  0  0  0
  -25.6522   34.9088  -13.0010 C   0  0  0  0  0  0  0  0  0  0  0  0
  -27.3793   36.1414  -11.8807 C   0  0  0  0  0  0  0  0  0  0  0  0
  -28.4675   35.8050  -12.4052 O   0  0  0  0  0  0  0  0  0  0  0  0
  -27.3270   36.3494  -10.5092 O   0  0  0  0  0  0  0  0  0  0  0  0
  1  2  1  0
  2  3  1  0
  3  4  1  0
  4  5  1  0
  5  6  1  6
  5  7  1  0
  7  8  2  0
  7  9  1  0
  9 10  1  0
 10 11  1  1
 11 12  1  0
 10 13  1  0
 13 14  2  0
 13 15  1  0
 15 16  1  0
 16 17  1  6
 17 18  1  0
 18 19  1  0
 18 20  1  0
 16 21  1  0
 21 22  2  0
 21 23  1  0
 23 24  1  0
 24 25  1  0
 25 26  1  0
 26 27  1  0
 27 28  1  6
 28 29  2  0
 28 30  1  0
 30 31  1  0
 31 32  1  0
 32 33  2  0
 32 34  1  0
 34 35  1  0
 35 36  1  6
 36 37  1  0
 37 38  1  0
 38 39  1  0
 39 40  1  0
 40 41  1  0
 40 42  2  0
 35 43  1  0
 43 44  2  0
 43 45  1  0
 45 46  1  0
 46 47  1  1
 47 48  1  0
 48 49  2  0
 49 50  1  0
 50 51  1  0
 51 52  2  0
 52 53  1  0
 53 54  2  0
 54 55  1  0
 55 56  2  0
 46 57  1  0
 57 58  2  0
 57 59  1  0
 59 60  1  0
 60 61  1  1
 61 62  1  0
 62 63  1  0
 63 64  1  0
 64 65  1  0
 60 66  1  0
 66 67  2  0
 66 68  1  0
 68 69  1  0
 69 70  1  0
 70 71  1  0
 71 72  1  0
 72 73  1  6
 73 74  2  0
 73 75  1  0
 75 76  1  0
 76 77  1  1
 76 78  1  0
 78 79  2  0
 78 80  1  0
 27 23  1  0
 56 48  1  0
 72 68  1  0
 56 51  1  0
M  CHG  4   6   1  42   1  65   1  80  -1
M  END
>  <shape_align_shape_tanimoto>  (3) 
0.23493987759807744

>  <shape_align_color_tanimoto>  (3) 
0.035838821945970073

>  <metric>  (3) 
combo

>  <metric_score>  (3) 
0.135

>  <template_pid>  (3) 
2HRP

>  <template_shape_score>  (3) 
0.235

>  <template_color_score>  (3) 
0.036

>  <template_combo_score>  (3) 
0.135

$$$$
