4JSZ_shape_pose
     RDKit          3D

 10 10  0  0  0  0  0  0  0  0999 V2000
   16.7808    4.8673   16.7326 N   0  0  0  0  0  0  0  0  0  0  0  0
   15.5404    4.2487   15.6814 S   0  0  0  0  0  0  0  0  0  0  0  0
   15.6906    4.9746   14.3770 O   0  0  0  0  0  0  0  0  0  0  0  0
   14.1750    4.4504   16.2585 O   0  0  0  0  0  0  0  0  0  0  0  0
   15.8162    2.5223   15.4743 C   0  0  0  0  0  0  0  0  0  0  0  0
   16.6145    2.0699   14.4469 C   0  0  0  0  0  0  0  0  0  0  0  0
   16.8179    0.6934   14.3039 C   0  0  0  0  0  0  0  0  0  0  0  0
   16.2199   -0.1848   15.1881 C   0  0  0  0  0  0  0  0  0  0  0  0
   15.4157    0.3136   16.2191 C   0  0  0  0  0  0  0  0  0  0  0  0
   15.2004    1.6685   16.3801 C   0  0  0  0  0  0  0  0  0  0  0  0
  1  2  1  0
  2  3  2  0
  2  4  2  0
  2  5  1  0
  5  6  2  0
  6  7  1  0
  7  8  2  0
  8  9  1  0
  9 10  2  0
 10  5  1  0
M  END
>  <shape_align_shape_tanimoto>  (1) 
0.76438522966564137

>  <shape_align_color_tanimoto>  (1) 
0.18828230751463682

>  <metric>  (1) 
shape

>  <metric_score>  (1) 
0.764

>  <template_pid>  (1) 
4JSZ

>  <template_shape_score>  (1) 
0.764

>  <template_color_score>  (1) 
0.188

>  <template_combo_score>  (1) 
0.476

$$$$
4JSZ_color_pose
     RDKit          3D

 10 10  0  0  0  0  0  0  0  0999 V2000
   16.7509    4.8559   16.7646 N   0  0  0  0  0  0  0  0  0  0  0  0
   15.5288    4.2445   15.7112 S   0  0  0  0  0  0  0  0  0  0  0  0
   14.1454    4.4872   16.2164 O   0  0  0  0  0  0  0  0  0  0  0  0
   15.6843    4.9816   14.4097 O   0  0  0  0  0  0  0  0  0  0  0  0
   15.8232    2.5333   15.4698 C   0  0  0  0  0  0  0  0  0  0  0  0
   15.2266    1.6541   16.3477 C   0  0  0  0  0  0  0  0  0  0  0  0
   15.4200    0.2882   16.2107 C   0  0  0  0  0  0  0  0  0  0  0  0
   16.2270   -0.1921   15.1725 C   0  0  0  0  0  0  0  0  0  0  0  0
   16.8050    0.7266   14.3160 C   0  0  0  0  0  0  0  0  0  0  0  0
   16.6259    2.0843   14.4346 C   0  0  0  0  0  0  0  0  0  0  0  0
  1  2  1  0
  2  3  2  0
  2  4  2  0
  2  5  1  0
  5  6  2  0
  6  7  1  0
  7  8  2  0
  8  9  1  0
  9 10  2  0
 10  5  1  0
M  END
>  <shape_align_shape_tanimoto>  (2) 
0.76154084013389822

>  <shape_align_color_tanimoto>  (2) 
0.19190013033382108

>  <metric>  (2) 
color

>  <metric_score>  (2) 
0.192

>  <template_pid>  (2) 
4JSZ

>  <template_shape_score>  (2) 
0.762

>  <template_color_score>  (2) 
0.192

>  <template_combo_score>  (2) 
0.477

$$$$
4JSZ_combo_pose
     RDKit          3D

 10 10  0  0  0  0  0  0  0  0999 V2000
   16.7509    4.8559   16.7646 N   0  0  0  0  0  0  0  0  0  0  0  0
   15.5288    4.2445   15.7112 S   0  0  0  0  0  0  0  0  0  0  0  0
   14.1454    4.4872   16.2164 O   0  0  0  0  0  0  0  0  0  0  0  0
   15.6843    4.9816   14.4097 O   0  0  0  0  0  0  0  0  0  0  0  0
   15.8232    2.5333   15.4698 C   0  0  0  0  0  0  0  0  0  0  0  0
   15.2266    1.6541   16.3477 C   0  0  0  0  0  0  0  0  0  0  0  0
   15.4200    0.2882   16.2107 C   0  0  0  0  0  0  0  0  0  0  0  0
   16.2270   -0.1921   15.1725 C   0  0  0  0  0  0  0  0  0  0  0  0
   16.8050    0.7266   14.3160 C   0  0  0  0  0  0  0  0  0  0  0  0
   16.6259    2.0843   14.4346 C   0  0  0  0  0  0  0  0  0  0  0  0
  1  2  1  0
  2  3  2  0
  2  4  2  0
  2  5  1  0
  5  6  2  0
  6  7  1  0
  7  8  2  0
  8  9  1  0
  9 10  2  0
 10  5  1  0
M  END
>  <shape_align_shape_tanimoto>  (3) 
0.76154084013389822

>  <shape_align_color_tanimoto>  (3) 
0.19190013033382108

>  <metric>  (3) 
combo

>  <metric_score>  (3) 
0.477

>  <template_pid>  (3) 
4JSZ

>  <template_shape_score>  (3) 
0.762

>  <template_color_score>  (3) 
0.192

>  <template_combo_score>  (3) 
0.477

$$$$
