6UII_shape_pose
     RDKit          3D

 11 10  0  0  0  0  0  0  0  0999 V2000
    4.3382   87.1136   23.4194 N   0  0  0  0  0  0  0  0  0  0  0  0
    4.4601   87.2184   24.8602 C   0  0  0  0  0  0  0  0  0  0  0  0
    5.9262   87.5039   25.2111 C   0  0  0  0  0  0  0  0  0  0  0  0
    6.1010   87.6195   26.6727 C   0  0  0  0  0  0  0  0  0  0  0  0
    7.4035   87.8847   27.1815 N   0  0  0  0  0  0  0  0  0  0  0  0
    8.3597   88.4966   26.3407 C   0  0  0  0  0  0  0  0  0  0  0  0
    9.3387   87.4803   25.7475 C   0  0  0  0  0  0  0  0  0  0  0  0
   10.3286   88.1935   24.8641 C   0  0  0  0  0  0  0  0  0  0  0  0
   11.1284   89.2208   25.5959 C   0  0  0  0  0  0  0  0  0  0  0  0
   11.9274   88.6341   26.7215 C   0  0  0  0  0  0  0  0  0  0  0  0
   12.8744   89.9094   27.5734 S   0  0  0  0  0  0  0  0  0  0  0  0
  1  2  1  0
  2  3  1  0
  3  4  1  0
  4  5  1  0
  5  6  1  0
  6  7  1  0
  7  8  1  0
  8  9  1  0
  9 10  1  0
 10 11  1  0
M  CHG  2   1   1   5   1
M  END
>  <shape_align_shape_tanimoto>  (1) 
0.74938978860769823

>  <shape_align_color_tanimoto>  (1) 
0.043929393495895079

>  <metric>  (1) 
shape

>  <metric_score>  (1) 
0.749

>  <template_pid>  (1) 
6UII

>  <template_shape_score>  (1) 
0.749

>  <template_color_score>  (1) 
0.044

>  <template_combo_score>  (1) 
0.397

$$$$
6UII_color_pose
     RDKit          3D

 11 10  0  0  0  0  0  0  0  0999 V2000
    5.1335   87.1002   23.7217 N   0  0  0  0  0  0  0  0  0  0  0  0
    4.5432   87.6233   24.9039 C   0  0  0  0  0  0  0  0  0  0  0  0
    5.2300   87.3679   26.1925 C   0  0  0  0  0  0  0  0  0  0  0  0
    6.6087   87.8889   26.3521 C   0  0  0  0  0  0  0  0  0  0  0  0
    7.6012   87.4131   25.4494 N   0  0  0  0  0  0  0  0  0  0  0  0
    8.8352   87.0364   26.0923 C   0  0  0  0  0  0  0  0  0  0  0  0
    9.5093   88.1124   26.8623 C   0  0  0  0  0  0  0  0  0  0  0  0
    9.9218   89.3251   26.1481 C   0  0  0  0  0  0  0  0  0  0  0  0
   10.9024   89.1249   25.0215 C   0  0  0  0  0  0  0  0  0  0  0  0
   12.1974   88.5108   25.4568 C   0  0  0  0  0  0  0  0  0  0  0  0
   12.9558   89.5995   26.6700 S   0  0  0  0  0  0  0  0  0  0  0  0
  1  2  1  0
  2  3  1  0
  3  4  1  0
  4  5  1  0
  5  6  1  0
  6  7  1  0
  7  8  1  0
  8  9  1  0
  9 10  1  0
 10 11  1  0
M  CHG  2   1   1   5   1
M  END
>  <shape_align_shape_tanimoto>  (2) 
0.72374187063241457

>  <shape_align_color_tanimoto>  (2) 
0.17251385627521698

>  <metric>  (2) 
color

>  <metric_score>  (2) 
0.173

>  <template_pid>  (2) 
6UII

>  <template_shape_score>  (2) 
0.724

>  <template_color_score>  (2) 
0.173

>  <template_combo_score>  (2) 
0.448

$$$$
6UII_combo_pose
     RDKit          3D

 11 10  0  0  0  0  0  0  0  0999 V2000
    5.1335   87.1002   23.7217 N   0  0  0  0  0  0  0  0  0  0  0  0
    4.5432   87.6233   24.9039 C   0  0  0  0  0  0  0  0  0  0  0  0
    5.2300   87.3679   26.1925 C   0  0  0  0  0  0  0  0  0  0  0  0
    6.6087   87.8889   26.3521 C   0  0  0  0  0  0  0  0  0  0  0  0
    7.6012   87.4131   25.4494 N   0  0  0  0  0  0  0  0  0  0  0  0
    8.8352   87.0364   26.0923 C   0  0  0  0  0  0  0  0  0  0  0  0
    9.5093   88.1124   26.8623 C   0  0  0  0  0  0  0  0  0  0  0  0
    9.9218   89.3251   26.1481 C   0  0  0  0  0  0  0  0  0  0  0  0
   10.9024   89.1249   25.0215 C   0  0  0  0  0  0  0  0  0  0  0  0
   12.1974   88.5108   25.4568 C   0  0  0  0  0  0  0  0  0  0  0  0
   12.9558   89.5995   26.6700 S   0  0  0  0  0  0  0  0  0  0  0  0
  1  2  1  0
  2  3  1  0
  3  4  1  0
  4  5  1  0
  5  6  1  0
  6  7  1  0
  7  8  1  0
  8  9  1  0
  9 10  1  0
 10 11  1  0
M  CHG  2   1   1   5   1
M  END
>  <shape_align_shape_tanimoto>  (3) 
0.72374187063241457

>  <shape_align_color_tanimoto>  (3) 
0.17251385627521698

>  <metric>  (3) 
combo

>  <metric_score>  (3) 
0.448

>  <template_pid>  (3) 
6UII

>  <template_shape_score>  (3) 
0.724

>  <template_color_score>  (3) 
0.173

>  <template_combo_score>  (3) 
0.448

$$$$
