5T2D_shape_pose
     RDKit          3D

 33 37  0  0  0  0  0  0  0  0999 V2000
    3.3808   72.0429   84.2932 C   0  0  0  0  0  0  0  0  0  0  0  0
    2.4194   70.9956   84.0107 N   0  0  0  0  0  0  0  0  0  0  0  0
    2.8359   69.8023   84.7030 C   0  0  0  0  0  0  0  0  0  0  0  0
    2.3274   70.6866   82.2947 S   0  0  0  0  0  0  0  0  0  0  0  0
    3.6302   70.8471   81.6118 O   0  0  0  0  0  0  0  0  0  0  0  0
    1.8948   69.2516   82.1765 O   0  0  0  0  0  0  0  0  0  0  0  0
    1.1056   71.7138   81.5763 N   0  0  0  0  0  0  0  0  0  0  0  0
    1.3012   72.6530   80.6265 C   0  0  0  0  0  0  0  0  0  0  0  0
    0.0773   73.2232   80.3495 C   0  0  0  0  0  0  0  0  0  0  0  0
   -0.1088   74.2875   79.3653 C   0  0  0  0  0  0  0  0  0  0  0  0
    0.7669   75.3194   79.3600 N   0  0  0  0  0  0  0  0  0  0  0  0
    0.6559   76.3452   78.4732 C   0  0  0  0  0  0  0  0  0  0  0  0
    1.6581   77.4131   78.5531 C   0  0  0  0  0  0  0  0  0  0  0  0
    2.1708   77.8977   79.7123 N   0  0  0  0  0  0  0  0  0  0  0  0
    3.0741   78.8793   79.4164 C   0  0  0  0  0  0  0  0  0  0  0  0
    3.8142   79.6125   80.4611 C   0  0  0  0  0  0  0  0  0  0  0  0
    2.9201   80.4498   81.3451 C   0  0  0  0  0  0  0  0  0  0  0  0
    1.9735   79.8726   82.1655 C   0  0  0  0  0  0  0  0  0  0  0  0
    1.1540   80.6394   82.9760 C   0  0  0  0  0  0  0  0  0  0  0  0
    1.3098   82.0100   82.9418 C   0  0  0  0  0  0  0  0  0  0  0  0
    2.2627   82.5905   82.1158 C   0  0  0  0  0  0  0  0  0  0  0  0
    3.0761   81.8223   81.3110 C   0  0  0  0  0  0  0  0  0  0  0  0
    4.8462   78.8476   81.2887 C   0  0  0  0  0  0  0  0  0  0  0  0
    5.2093   79.9926   80.4078 C   0  0  0  0  0  0  0  0  0  0  0  0
    3.1073   78.9881   78.0777 N   0  0  0  0  0  0  0  0  0  0  0  0
    3.9447   79.9212   77.3761 C   0  0  0  0  0  0  0  0  0  0  0  0
    2.2472   78.0973   77.5560 N   0  0  0  0  0  0  0  0  0  0  0  0
   -0.3680   76.3551   77.5459 C   0  0  0  0  0  0  0  0  0  0  0  0
   -1.2403   75.3100   77.5642 N   0  0  0  0  0  0  0  0  0  0  0  0
   -1.1298   74.2944   78.4428 C   0  0  0  0  0  0  0  0  0  0  0  0
   -2.0514   73.2360   78.4265 N   0  0  0  0  0  0  0  0  0  0  0  0
   -0.8552   72.6035   81.1553 C   0  0  0  0  0  0  0  0  0  0  0  0
   -0.1764   71.6820   81.8930 N   0  0  0  0  0  0  0  0  0  0  0  0
  1  2  1  0
  2  3  1  0
  2  4  1  0
  4  5  2  0
  4  6  2  0
  4  7  1  0
  7  8  1  0
  8  9  2  0
  9 10  1  0
 10 11  2  0
 11 12  1  0
 12 13  1  0
 13 14  1  0
 14 15  2  0
 15 16  1  0
 16 17  1  0
 17 18  2  0
 18 19  1  0
 19 20  2  0
 20 21  1  0
 21 22  2  0
 16 23  1  0
 23 24  1  0
 15 25  1  0
 25 26  1  0
 25 27  1  0
 12 28  2  0
 28 29  1  0
 29 30  2  0
 30 31  1  0
  9 32  1  0
 32 33  2  0
 33  7  1  0
 30 10  1  0
 27 13  2  0
 24 16  1  0
 22 17  1  0
M  END
>  <shape_align_shape_tanimoto>  (1) 
0.69087142791922773

>  <shape_align_color_tanimoto>  (1) 
0.052370629009852655

>  <metric>  (1) 
shape

>  <metric_score>  (1) 
0.691

>  <template_pid>  (1) 
5T2D

>  <template_shape_score>  (1) 
0.691

>  <template_color_score>  (1) 
0.052

>  <template_combo_score>  (1) 
0.372

$$$$
5T2D_color_pose
     RDKit          3D

 33 37  0  0  0  0  0  0  0  0999 V2000
    4.8423   81.6133   84.0310 C   0  0  0  0  0  0  0  0  0  0  0  0
    3.7558   80.6209   84.0612 N   0  0  0  0  0  0  0  0  0  0  0  0
    3.1468   80.8038   85.3886 C   0  0  0  0  0  0  0  0  0  0  0  0
    2.5756   81.0427   82.8662 S   0  0  0  0  0  0  0  0  0  0  0  0
    2.5752   82.5404   82.7695 O   0  0  0  0  0  0  0  0  0  0  0  0
    1.2243   80.6293   83.3699 O   0  0  0  0  0  0  0  0  0  0  0  0
    2.9113   80.3169   81.3352 N   0  0  0  0  0  0  0  0  0  0  0  0
    2.0913   79.4490   80.7143 C   0  0  0  0  0  0  0  0  0  0  0  0
    2.7115   79.0926   79.5126 C   0  0  0  0  0  0  0  0  0  0  0  0
    2.0836   78.1559   78.5885 C   0  0  0  0  0  0  0  0  0  0  0  0
    1.5338   77.0269   79.0732 N   0  0  0  0  0  0  0  0  0  0  0  0
    0.9343   76.1158   78.2652 C   0  0  0  0  0  0  0  0  0  0  0  0
    0.3694   74.9238   78.8994 C   0  0  0  0  0  0  0  0  0  0  0  0
    1.0889   73.9842   79.5639 N   0  0  0  0  0  0  0  0  0  0  0  0
    0.2646   73.0206   80.0250 C   0  0  0  0  0  0  0  0  0  0  0  0
    0.6956   71.8194   80.8056 C   0  0  0  0  0  0  0  0  0  0  0  0
    1.2894   72.1393   82.1455 C   0  0  0  0  0  0  0  0  0  0  0  0
    2.4900   72.8551   82.1249 C   0  0  0  0  0  0  0  0  0  0  0  0
    3.1215   73.2009   83.3192 C   0  0  0  0  0  0  0  0  0  0  0  0
    2.5213   72.8128   84.5198 C   0  0  0  0  0  0  0  0  0  0  0  0
    1.3378   72.1080   84.5082 C   0  0  0  0  0  0  0  0  0  0  0  0
    0.6946   71.7549   83.3266 C   0  0  0  0  0  0  0  0  0  0  0  0
    1.4085   70.7131   80.0918 C   0  0  0  0  0  0  0  0  0  0  0  0
    0.0139   70.5392   80.6835 C   0  0  0  0  0  0  0  0  0  0  0  0
   -0.9822   73.3680   79.6411 N   0  0  0  0  0  0  0  0  0  0  0  0
   -2.1725   72.5854   79.9422 C   0  0  0  0  0  0  0  0  0  0  0  0
   -0.9146   74.5224   78.9588 N   0  0  0  0  0  0  0  0  0  0  0  0
    0.8772   76.3366   76.9030 C   0  0  0  0  0  0  0  0  0  0  0  0
    1.4245   77.4685   76.3860 N   0  0  0  0  0  0  0  0  0  0  0  0
    2.0182   78.3612   77.2268 C   0  0  0  0  0  0  0  0  0  0  0  0
    2.6008   79.5576   76.7108 N   0  0  0  0  0  0  0  0  0  0  0  0
    3.8905   79.7634   79.4529 C   0  0  0  0  0  0  0  0  0  0  0  0
    3.9662   80.4999   80.5934 N   0  0  0  0  0  0  0  0  0  0  0  0
  1  2  1  0
  2  3  1  0
  2  4  1  0
  4  5  2  0
  4  6  2  0
  4  7  1  0
  7  8  1  0
  8  9  2  0
  9 10  1  0
 10 11  2  0
 11 12  1  0
 12 13  1  0
 13 14  1  0
 14 15  2  0
 15 16  1  0
 16 17  1  0
 17 18  2  0
 18 19  1  0
 19 20  2  0
 20 21  1  0
 21 22  2  0
 16 23  1  0
 23 24  1  0
 15 25  1  0
 25 26  1  0
 25 27  1  0
 12 28  2  0
 28 29  1  0
 29 30  2  0
 30 31  1  0
  9 32  1  0
 32 33  2  0
 33  7  1  0
 30 10  1  0
 27 13  2  0
 24 16  1  0
 22 17  1  0
M  END
>  <shape_align_shape_tanimoto>  (2) 
0.55474950378557986

>  <shape_align_color_tanimoto>  (2) 
0.16829862740936427

>  <metric>  (2) 
color

>  <metric_score>  (2) 
0.168

>  <template_pid>  (2) 
5T2D

>  <template_shape_score>  (2) 
0.555

>  <template_color_score>  (2) 
0.168

>  <template_combo_score>  (2) 
0.362

$$$$
5T2D_combo_pose
     RDKit          3D

 33 37  0  0  0  0  0  0  0  0999 V2000
    3.3808   72.0429   84.2932 C   0  0  0  0  0  0  0  0  0  0  0  0
    2.4194   70.9956   84.0107 N   0  0  0  0  0  0  0  0  0  0  0  0
    2.8359   69.8023   84.7030 C   0  0  0  0  0  0  0  0  0  0  0  0
    2.3274   70.6866   82.2947 S   0  0  0  0  0  0  0  0  0  0  0  0
    3.6302   70.8471   81.6118 O   0  0  0  0  0  0  0  0  0  0  0  0
    1.8948   69.2516   82.1765 O   0  0  0  0  0  0  0  0  0  0  0  0
    1.1056   71.7138   81.5763 N   0  0  0  0  0  0  0  0  0  0  0  0
    1.3012   72.6530   80.6265 C   0  0  0  0  0  0  0  0  0  0  0  0
    0.0773   73.2232   80.3495 C   0  0  0  0  0  0  0  0  0  0  0  0
   -0.1088   74.2875   79.3653 C   0  0  0  0  0  0  0  0  0  0  0  0
    0.7669   75.3194   79.3600 N   0  0  0  0  0  0  0  0  0  0  0  0
    0.6559   76.3452   78.4732 C   0  0  0  0  0  0  0  0  0  0  0  0
    1.6581   77.4131   78.5531 C   0  0  0  0  0  0  0  0  0  0  0  0
    2.1708   77.8977   79.7123 N   0  0  0  0  0  0  0  0  0  0  0  0
    3.0741   78.8793   79.4164 C   0  0  0  0  0  0  0  0  0  0  0  0
    3.8142   79.6125   80.4611 C   0  0  0  0  0  0  0  0  0  0  0  0
    2.9201   80.4498   81.3451 C   0  0  0  0  0  0  0  0  0  0  0  0
    1.9735   79.8726   82.1655 C   0  0  0  0  0  0  0  0  0  0  0  0
    1.1540   80.6394   82.9760 C   0  0  0  0  0  0  0  0  0  0  0  0
    1.3098   82.0100   82.9418 C   0  0  0  0  0  0  0  0  0  0  0  0
    2.2627   82.5905   82.1158 C   0  0  0  0  0  0  0  0  0  0  0  0
    3.0761   81.8223   81.3110 C   0  0  0  0  0  0  0  0  0  0  0  0
    4.8462   78.8476   81.2887 C   0  0  0  0  0  0  0  0  0  0  0  0
    5.2093   79.9926   80.4078 C   0  0  0  0  0  0  0  0  0  0  0  0
    3.1073   78.9881   78.0777 N   0  0  0  0  0  0  0  0  0  0  0  0
    3.9447   79.9212   77.3761 C   0  0  0  0  0  0  0  0  0  0  0  0
    2.2472   78.0973   77.5560 N   0  0  0  0  0  0  0  0  0  0  0  0
   -0.3680   76.3551   77.5459 C   0  0  0  0  0  0  0  0  0  0  0  0
   -1.2403   75.3100   77.5642 N   0  0  0  0  0  0  0  0  0  0  0  0
   -1.1298   74.2944   78.4428 C   0  0  0  0  0  0  0  0  0  0  0  0
   -2.0514   73.2360   78.4265 N   0  0  0  0  0  0  0  0  0  0  0  0
   -0.8552   72.6035   81.1553 C   0  0  0  0  0  0  0  0  0  0  0  0
   -0.1764   71.6820   81.8930 N   0  0  0  0  0  0  0  0  0  0  0  0
  1  2  1  0
  2  3  1  0
  2  4  1  0
  4  5  2  0
  4  6  2  0
  4  7  1  0
  7  8  1  0
  8  9  2  0
  9 10  1  0
 10 11  2  0
 11 12  1  0
 12 13  1  0
 13 14  1  0
 14 15  2  0
 15 16  1  0
 16 17  1  0
 17 18  2  0
 18 19  1  0
 19 20  2  0
 20 21  1  0
 21 22  2  0
 16 23  1  0
 23 24  1  0
 15 25  1  0
 25 26  1  0
 25 27  1  0
 12 28  2  0
 28 29  1  0
 29 30  2  0
 30 31  1  0
  9 32  1  0
 32 33  2  0
 33  7  1  0
 30 10  1  0
 27 13  2  0
 24 16  1  0
 22 17  1  0
M  END
>  <shape_align_shape_tanimoto>  (3) 
0.69087142791922773

>  <shape_align_color_tanimoto>  (3) 
0.052370629009852655

>  <metric>  (3) 
combo

>  <metric_score>  (3) 
0.372

>  <template_pid>  (3) 
5T2D

>  <template_shape_score>  (3) 
0.691

>  <template_color_score>  (3) 
0.052

>  <template_combo_score>  (3) 
0.372

$$$$
