4IR5_shape_pose
     RDKit          3D

 27 30  0  0  0  0  0  0  0  0999 V2000
   10.0125  -14.2548    0.9073 C   0  0  0  0  0  0  0  0  0  0  0  0
    8.6393  -13.7760    0.9094 C   0  0  0  0  0  0  0  0  0  0  0  0
    7.9109  -14.0777   -0.1011 O   0  0  0  0  0  0  0  0  0  0  0  0
    7.9866  -12.9861    1.9348 C   0  0  0  0  0  0  0  0  0  0  0  0
    6.6703  -12.5777    1.8458 C   0  0  0  0  0  0  0  0  0  0  0  0
    6.3266  -11.8375    2.9787 C   0  0  0  0  0  0  0  0  0  0  0  0
    5.0463  -11.2161    3.2966 C   0  0  0  0  0  0  0  0  0  0  0  0
    4.8750   -9.9071    2.8496 C   0  0  0  0  0  0  0  0  0  0  0  0
    3.7142   -9.2026    3.0821 C   0  0  0  0  0  0  0  0  0  0  0  0
    2.7180   -9.8691    3.7895 C   0  0  0  0  0  0  0  0  0  0  0  0
    2.8781  -11.1581    4.2335 C   0  0  0  0  0  0  0  0  0  0  0  0
    4.0448  -11.8545    3.9950 C   0  0  0  0  0  0  0  0  0  0  0  0
    4.2592  -13.2511    4.4577 C   0  0  0  0  0  0  0  0  0  0  0  0
    4.1261  -14.0923    3.3782 O   0  0  0  0  0  0  0  0  0  0  0  0
    7.4682  -11.8140    3.7457 C   0  0  0  0  0  0  0  0  0  0  0  0
    7.6626  -11.2104    4.9711 C   0  0  0  0  0  0  0  0  0  0  0  0
    8.9086  -11.3047    5.5887 C   0  0  0  0  0  0  0  0  0  0  0  0
    9.0787  -10.6891    6.8211 O   0  0  0  0  0  0  0  0  0  0  0  0
    7.9968  -10.0325    7.3890 C   0  0  0  0  0  0  0  0  0  0  0  0
    7.1902  -10.8148    8.2248 C   0  0  0  0  0  0  0  0  0  0  0  0
    6.0908  -10.2409    8.8318 C   0  0  0  0  0  0  0  0  0  0  0  0
    5.7904   -8.8962    8.6122 C   0  0  0  0  0  0  0  0  0  0  0  0
    6.6009   -8.1210    7.7759 C   0  0  0  0  0  0  0  0  0  0  0  0
    7.7071   -8.7036    7.1669 C   0  0  0  0  0  0  0  0  0  0  0  0
    9.8735  -12.0011    4.9288 C   0  0  0  0  0  0  0  0  0  0  0  0
    9.6226  -12.5794    3.7143 C   0  0  0  0  0  0  0  0  0  0  0  0
    8.4322  -12.5024    3.1002 N   0  0  0  0  0  0  0  0  0  0  0  0
  1  2  1  0
  2  3  2  0
  2  4  1  0
  4  5  2  0
  5  6  1  0
  6  7  1  0
  7  8  2  0
  8  9  1  0
  9 10  2  0
 10 11  1  0
 11 12  2  0
 12 13  1  0
 13 14  1  0
  6 15  2  0
 15 16  1  0
 16 17  2  0
 17 18  1  0
 18 19  1  0
 19 20  2  0
 20 21  1  0
 21 22  2  0
 22 23  1  0
 23 24  2  0
 17 25  1  0
 25 26  2  0
 26 27  1  0
 27  4  1  0
 12  7  1  0
 27 15  1  0
 24 19  1  0
M  END
>  <shape_align_shape_tanimoto>  (1) 
0.51947526507055308

>  <shape_align_color_tanimoto>  (1) 
0.18250656671586898

>  <metric>  (1) 
shape

>  <metric_score>  (1) 
0.519

>  <template_pid>  (1) 
4IR5

>  <template_shape_score>  (1) 
0.519

>  <template_color_score>  (1) 
0.183

>  <template_combo_score>  (1) 
0.351

$$$$
4IR5_color_pose
     RDKit          3D

 27 30  0  0  0  0  0  0  0  0999 V2000
   10.1222  -14.0672    1.3449 C   0  0  0  0  0  0  0  0  0  0  0  0
    8.7202  -13.6210    1.2252 C   0  0  0  0  0  0  0  0  0  0  0  0
    8.0987  -13.9579    0.1819 O   0  0  0  0  0  0  0  0  0  0  0  0
    7.9969  -12.8315    2.1992 C   0  0  0  0  0  0  0  0  0  0  0  0
    6.6712  -12.4494    2.0067 C   0  0  0  0  0  0  0  0  0  0  0  0
    6.2359  -11.7062    3.0917 C   0  0  0  0  0  0  0  0  0  0  0  0
    4.9042  -11.1182    3.2782 C   0  0  0  0  0  0  0  0  0  0  0  0
    4.6006   -9.8419    2.8424 C   0  0  0  0  0  0  0  0  0  0  0  0
    3.3201   -9.3846    3.0671 C   0  0  0  0  0  0  0  0  0  0  0  0
    2.3594  -10.1634    3.7054 C   0  0  0  0  0  0  0  0  0  0  0  0
    2.6759  -11.4358    4.1354 C   0  0  0  0  0  0  0  0  0  0  0  0
    3.9675  -11.9074    3.9131 C   0  0  0  0  0  0  0  0  0  0  0  0
    4.3089  -13.2731    4.3737 C   0  0  0  0  0  0  0  0  0  0  0  0
    5.0820  -13.2520    5.5401 O   0  0  0  0  0  0  0  0  0  0  0  0
    7.3144  -11.6428    3.9436 C   0  0  0  0  0  0  0  0  0  0  0  0
    7.4139  -11.0192    5.1706 C   0  0  0  0  0  0  0  0  0  0  0  0
    8.5877  -11.0731    5.8698 C   0  0  0  0  0  0  0  0  0  0  0  0
    8.8025  -10.4884    7.1028 O   0  0  0  0  0  0  0  0  0  0  0  0
    7.8205   -9.7657    7.7622 C   0  0  0  0  0  0  0  0  0  0  0  0
    6.9190  -10.3301    8.6404 C   0  0  0  0  0  0  0  0  0  0  0  0
    5.9961   -9.4795    9.2223 C   0  0  0  0  0  0  0  0  0  0  0  0
    5.9626   -8.1222    8.9492 C   0  0  0  0  0  0  0  0  0  0  0  0
    6.8777   -7.5579    8.0597 C   0  0  0  0  0  0  0  0  0  0  0  0
    7.7830   -8.3993    7.4903 C   0  0  0  0  0  0  0  0  0  0  0  0
    9.6378  -11.7640    5.3009 C   0  0  0  0  0  0  0  0  0  0  0  0
    9.4772  -12.3678    4.0692 C   0  0  0  0  0  0  0  0  0  0  0  0
    8.3433  -12.3224    3.3809 N   0  0  0  0  0  0  0  0  0  0  0  0
  1  2  1  0
  2  3  2  0
  2  4  1  0
  4  5  2  0
  5  6  1  0
  6  7  1  0
  7  8  2  0
  8  9  1  0
  9 10  2  0
 10 11  1  0
 11 12  2  0
 12 13  1  0
 13 14  1  0
  6 15  2  0
 15 16  1  0
 16 17  2  0
 17 18  1  0
 18 19  1  0
 19 20  2  0
 20 21  1  0
 21 22  2  0
 22 23  1  0
 23 24  2  0
 17 25  1  0
 25 26  2  0
 26 27  1  0
 27  4  1  0
 12  7  1  0
 27 15  1  0
 24 19  1  0
M  END
>  <shape_align_shape_tanimoto>  (2) 
0.50696663701747913

>  <shape_align_color_tanimoto>  (2) 
0.22254761921098551

>  <metric>  (2) 
color

>  <metric_score>  (2) 
0.223

>  <template_pid>  (2) 
4IR5

>  <template_shape_score>  (2) 
0.507

>  <template_color_score>  (2) 
0.223

>  <template_combo_score>  (2) 
0.365

$$$$
4IR5_combo_pose
     RDKit          3D

 27 30  0  0  0  0  0  0  0  0999 V2000
    8.1567  -14.0794   -0.0384 C   0  0  0  0  0  0  0  0  0  0  0  0
    8.7551  -13.5884    1.2169 C   0  0  0  0  0  0  0  0  0  0  0  0
    9.9810  -13.8293    1.4438 O   0  0  0  0  0  0  0  0  0  0  0  0
    7.9169  -12.8441    2.1515 C   0  0  0  0  0  0  0  0  0  0  0  0
    6.5635  -12.5256    1.9997 C   0  0  0  0  0  0  0  0  0  0  0  0
    6.1708  -11.8202    3.1084 C   0  0  0  0  0  0  0  0  0  0  0  0
    4.8423  -11.2600    3.4249 C   0  0  0  0  0  0  0  0  0  0  0  0
    3.9873  -12.0967    4.1200 C   0  0  0  0  0  0  0  0  0  0  0  0
    2.7242  -11.6519    4.4571 C   0  0  0  0  0  0  0  0  0  0  0  0
    2.3772  -10.3724    4.0746 C   0  0  0  0  0  0  0  0  0  0  0  0
    3.2271   -9.5467    3.3861 C   0  0  0  0  0  0  0  0  0  0  0  0
    4.4921   -9.9791    3.0432 C   0  0  0  0  0  0  0  0  0  0  0  0
    5.4686   -9.1557    2.3035 C   0  0  0  0  0  0  0  0  0  0  0  0
    4.8871   -7.9049    2.0292 O   0  0  0  0  0  0  0  0  0  0  0  0
    7.2919  -11.7201    3.9184 C   0  0  0  0  0  0  0  0  0  0  0  0
    7.4189  -11.1041    5.1472 C   0  0  0  0  0  0  0  0  0  0  0  0
    8.6571  -11.1446    5.7577 C   0  0  0  0  0  0  0  0  0  0  0  0
    8.8599  -10.5368    7.0130 O   0  0  0  0  0  0  0  0  0  0  0  0
    7.7942   -9.8823    7.6531 C   0  0  0  0  0  0  0  0  0  0  0  0
    7.6170   -8.5364    7.3878 C   0  0  0  0  0  0  0  0  0  0  0  0
    6.5755   -7.8240    7.9914 C   0  0  0  0  0  0  0  0  0  0  0  0
    5.7440   -8.5140    8.8516 C   0  0  0  0  0  0  0  0  0  0  0  0
    5.9114   -9.8561    9.1236 C   0  0  0  0  0  0  0  0  0  0  0  0
    6.9493  -10.5573    8.5194 C   0  0  0  0  0  0  0  0  0  0  0  0
    9.7553  -11.7665    5.1975 C   0  0  0  0  0  0  0  0  0  0  0  0
    9.5471  -12.3680    3.9509 C   0  0  0  0  0  0  0  0  0  0  0  0
    8.3408  -12.3346    3.3446 N   0  0  0  0  0  0  0  0  0  0  0  0
  1  2  1  0
  2  3  2  0
  2  4  1  0
  4  5  2  0
  5  6  1  0
  6  7  1  0
  7  8  2  0
  8  9  1  0
  9 10  2  0
 10 11  1  0
 11 12  2  0
 12 13  1  0
 13 14  1  0
  6 15  2  0
 15 16  1  0
 16 17  2  0
 17 18  1  0
 18 19  1  0
 19 20  2  0
 20 21  1  0
 21 22  2  0
 22 23  1  0
 23 24  2  0
 17 25  1  0
 25 26  2  0
 26 27  1  0
 27  4  1  0
 12  7  1  0
 27 15  1  0
 24 19  1  0
M  END
>  <shape_align_shape_tanimoto>  (3) 
0.51343923230689037

>  <shape_align_color_tanimoto>  (3) 
0.21744153359511134

>  <metric>  (3) 
combo

>  <metric_score>  (3) 
0.365

>  <template_pid>  (3) 
4IR5

>  <template_shape_score>  (3) 
0.513

>  <template_color_score>  (3) 
0.217

>  <template_combo_score>  (3) 
0.365

$$$$
