1JQ9_shape_pose
     RDKit          3D

 47 48  0  0  0  0  0  0  0  0999 V2000
    2.4218    3.7681   20.2542 C   0  0  0  0  0  0  0  0  0  0  0  0
    3.5423    2.9079   19.7763 C   0  0  0  0  0  0  0  0  0  0  0  0
    3.2281    2.4742   18.3395 C   0  0  0  0  0  0  0  0  0  0  0  0
    3.7899    1.6723   20.6174 C   0  0  0  0  0  0  0  0  0  0  0  0
    4.1101    2.1059   21.9940 C   0  0  2  0  0  0  0  0  0  0  0  0
    5.2796    2.9472   22.0749 N   0  0  0  0  0  0  0  0  0  0  0  0
    5.3193    4.2587   22.5605 C   0  0  0  0  0  0  0  0  0  0  0  0
    4.3155    4.8746   23.0082 O   0  0  0  0  0  0  0  0  0  0  0  0
    6.6597    4.9495   22.5300 C   0  0  1  0  0  0  0  0  0  0  0  0
    6.5386    6.2838   23.0598 N   0  0  0  0  0  0  0  0  0  0  0  0
    7.6068    4.1228   23.3355 C   0  0  0  0  0  0  0  0  0  0  0  0
    8.9779    4.6954   23.3707 C   0  0  0  0  0  0  0  0  0  0  0  0
    9.3977    5.5986   24.3374 C   0  0  0  0  0  0  0  0  0  0  0  0
   10.7027    6.0362   24.2237 C   0  0  0  0  0  0  0  0  0  0  0  0
   11.5674    5.6304   23.2328 C   0  0  0  0  0  0  0  0  0  0  0  0
   11.1389    4.7340   22.2789 C   0  0  0  0  0  0  0  0  0  0  0  0
    9.8421    4.2872   22.3762 C   0  0  0  0  0  0  0  0  0  0  0  0
    4.2840    0.9981   22.9889 C   0  0  0  0  0  0  0  0  0  0  0  0
    5.2438    1.0345   23.8153 O   0  0  0  0  0  0  0  0  0  0  0  0
    3.3390   -0.0454   22.9355 N   0  0  0  0  0  0  0  0  0  0  0  0
    3.3067   -1.2051   23.7997 C   0  0  1  0  0  0  0  0  0  0  0  0
    1.9464   -1.6666   24.1300 C   0  0  0  0  0  0  0  0  0  0  0  0
    1.2639   -0.6361   24.7841 O   0  0  0  0  0  0  0  0  0  0  0  0
    4.1953   -2.2776   23.1950 C   0  0  0  0  0  0  0  0  0  0  0  0
    4.9031   -1.9185   22.2455 O   0  0  0  0  0  0  0  0  0  0  0  0
    4.2076   -3.6013   23.6953 N   0  0  0  0  0  0  0  0  0  0  0  0
    5.0712   -4.5602   23.1313 C   0  0  1  0  0  0  0  0  0  0  0  0
    5.6904   -5.4866   24.1523 C   0  0  0  0  0  0  0  0  0  0  0  0
    4.5744   -6.2033   24.8834 C   0  0  0  0  0  0  0  0  0  0  0  0
    4.0165   -7.3623   24.4312 C   0  0  0  0  0  0  0  0  0  0  0  0
    3.0079   -7.9663   25.1331 C   0  0  0  0  0  0  0  0  0  0  0  0
    2.5158   -7.4225   26.3292 C   0  0  0  0  0  0  0  0  0  0  0  0
    1.4801   -8.0588   27.0314 O   0  0  0  0  0  0  0  0  0  0  0  0
    3.0896   -6.2434   26.7818 C   0  0  0  0  0  0  0  0  0  0  0  0
    4.1083   -5.6469   26.0596 C   0  0  0  0  0  0  0  0  0  0  0  0
    4.5370   -5.3953   22.0199 C   0  0  0  0  0  0  0  0  0  0  0  0
    3.3583   -5.3623   21.6042 O   0  0  0  0  0  0  0  0  0  0  0  0
    5.4759   -6.2756   21.4155 N   0  0  0  0  0  0  0  0  0  0  0  0
    5.0094   -7.1609   20.2472 C   0  0  1  0  0  0  0  0  0  0  0  0
    5.8665   -6.8287   19.1139 C   0  0  0  0  0  0  0  0  0  0  0  0
    5.7173   -7.4389   17.7813 C   0  0  0  0  0  0  0  0  0  0  0  0
    5.8878   -8.9169   17.6246 C   0  0  0  0  0  0  0  0  0  0  0  0
    5.7908   -9.2386   16.1244 C   0  0  0  0  0  0  0  0  0  0  0  0
    4.5296   -8.8284   15.5811 N   0  0  0  0  0  0  0  0  0  0  0  0
    5.2275   -8.5063   20.8098 C   0  0  0  0  0  0  0  0  0  0  0  0
    6.1547   -8.7018   21.6781 O   0  0  0  0  0  0  0  0  0  0  0  0
    4.4999   -9.6409   20.4926 O   0  0  0  0  0  0  0  0  0  0  0  0
  1  2  1  0
  2  3  1  0
  2  4  1  0
  5  4  1  6
  5  6  1  0
  6  7  1  0
  7  8  2  0
  7  9  1  0
  9 10  1  1
  9 11  1  0
 11 12  1  0
 12 13  2  0
 13 14  1  0
 14 15  2  0
 15 16  1  0
 16 17  2  0
  5 18  1  0
 18 19  2  0
 18 20  1  0
 20 21  1  0
 21 22  1  6
 22 23  1  0
 21 24  1  0
 24 25  2  0
 24 26  1  0
 26 27  1  0
 27 28  1  1
 28 29  1  0
 29 30  2  0
 30 31  1  0
 31 32  2  0
 32 33  1  0
 32 34  1  0
 34 35  2  0
 27 36  1  0
 36 37  2  0
 36 38  1  0
 38 39  1  0
 39 40  1  6
 40 41  1  0
 41 42  1  0
 42 43  1  0
 43 44  1  0
 39 45  1  0
 45 46  2  0
 45 47  1  0
 17 12  1  0
 35 29  1  0
M  CHG  3  10   1  44   1  47  -1
M  END
>  <shape_align_shape_tanimoto>  (1) 
0.36286286064068524

>  <shape_align_color_tanimoto>  (1) 
0.028311025667789435

>  <metric>  (1) 
shape

>  <metric_score>  (1) 
0.363

>  <template_pid>  (1) 
1JQ9

>  <template_shape_score>  (1) 
0.363

>  <template_color_score>  (1) 
0.028

>  <template_combo_score>  (1) 
0.196

$$$$
1JQ9_color_pose
     RDKit          3D

 47 48  0  0  0  0  0  0  0  0999 V2000
    5.2017   -3.8837   20.3703 C   0  0  0  0  0  0  0  0  0  0  0  0
    5.2721   -2.8355   21.4281 C   0  0  0  0  0  0  0  0  0  0  0  0
    5.0672   -3.5052   22.6845 C   0  0  0  0  0  0  0  0  0  0  0  0
    4.3282   -1.8209   21.0551 C   0  0  0  0  0  0  0  0  0  0  0  0
    4.2240   -0.6743   21.9575 C   0  0  2  0  0  0  0  0  0  0  0  0
    5.4428   -0.0037   22.0949 N   0  0  0  0  0  0  0  0  0  0  0  0
    5.6823    1.2273   21.5750 C   0  0  0  0  0  0  0  0  0  0  0  0
    4.7598    1.7707   20.9653 O   0  0  0  0  0  0  0  0  0  0  0  0
    6.9046    1.9640   21.6567 C   0  0  1  0  0  0  0  0  0  0  0  0
    6.7802    3.1820   20.9436 N   0  0  0  0  0  0  0  0  0  0  0  0
    7.3815    2.1625   22.9985 C   0  0  0  0  0  0  0  0  0  0  0  0
    6.5218    2.8778   23.8784 C   0  0  0  0  0  0  0  0  0  0  0  0
    5.6374    2.3176   24.7087 C   0  0  0  0  0  0  0  0  0  0  0  0
    4.8347    3.0023   25.5185 C   0  0  0  0  0  0  0  0  0  0  0  0
    4.8903    4.3361   25.5283 C   0  0  0  0  0  0  0  0  0  0  0  0
    5.7630    4.9192   24.7110 C   0  0  0  0  0  0  0  0  0  0  0  0
    6.5735    4.2275   23.8929 C   0  0  0  0  0  0  0  0  0  0  0  0
    3.4827   -0.8841   23.1434 C   0  0  0  0  0  0  0  0  0  0  0  0
    3.8158   -0.5676   24.2705 O   0  0  0  0  0  0  0  0  0  0  0  0
    2.2345   -1.5104   23.0485 N   0  0  0  0  0  0  0  0  0  0  0  0
    1.4535   -1.7227   24.1641 C   0  0  1  0  0  0  0  0  0  0  0  0
    0.1921   -0.9488   24.1141 C   0  0  0  0  0  0  0  0  0  0  0  0
   -0.5234   -1.1992   25.2294 O   0  0  0  0  0  0  0  0  0  0  0  0
    1.0848   -3.0703   24.4235 C   0  0  0  0  0  0  0  0  0  0  0  0
    0.3090   -3.2389   25.3865 O   0  0  0  0  0  0  0  0  0  0  0  0
    1.4710   -4.1821   23.7563 N   0  0  0  0  0  0  0  0  0  0  0  0
    0.9955   -5.4521   24.1423 C   0  0  1  0  0  0  0  0  0  0  0  0
    0.3320   -6.0524   23.0015 C   0  0  0  0  0  0  0  0  0  0  0  0
    1.1348   -6.2437   21.8472 C   0  0  0  0  0  0  0  0  0  0  0  0
    1.8110   -7.3840   21.6647 C   0  0  0  0  0  0  0  0  0  0  0  0
    2.5541   -7.5035   20.5386 C   0  0  0  0  0  0  0  0  0  0  0  0
    2.6275   -6.5324   19.6254 C   0  0  0  0  0  0  0  0  0  0  0  0
    3.3917   -6.7054   18.5084 O   0  0  0  0  0  0  0  0  0  0  0  0
    1.9489   -5.3881   19.8087 C   0  0  0  0  0  0  0  0  0  0  0  0
    1.2138   -5.2606   20.9148 C   0  0  0  0  0  0  0  0  0  0  0  0
    2.0529   -6.2172   24.7081 C   0  0  0  0  0  0  0  0  0  0  0  0
    1.7727   -7.3696   25.0717 O   0  0  0  0  0  0  0  0  0  0  0  0
    3.3371   -5.8140   24.8929 N   0  0  0  0  0  0  0  0  0  0  0  0
    4.3358   -6.6576   25.4816 C   0  0  1  0  0  0  0  0  0  0  0  0
    5.4981   -6.7553   24.6012 C   0  0  0  0  0  0  0  0  0  0  0  0
    5.2927   -7.2990   23.3099 C   0  0  0  0  0  0  0  0  0  0  0  0
    4.8615   -8.6258   23.0841 C   0  0  0  0  0  0  0  0  0  0  0  0
    5.7340   -9.7099   23.4719 C   0  0  0  0  0  0  0  0  0  0  0  0
    6.0029   -9.7276   24.8308 N   0  0  0  0  0  0  0  0  0  0  0  0
    4.7602   -5.9654   26.6742 C   0  0  0  0  0  0  0  0  0  0  0  0
    4.5463   -4.7847   26.8775 O   0  0  0  0  0  0  0  0  0  0  0  0
    5.4349   -6.6780   27.6169 O   0  0  0  0  0  0  0  0  0  0  0  0
  1  2  1  0
  2  3  1  0
  2  4  1  0
  5  4  1  1
  5  6  1  0
  6  7  1  0
  7  8  2  0
  7  9  1  0
  9 10  1  1
  9 11  1  0
 11 12  1  0
 12 13  2  0
 13 14  1  0
 14 15  2  0
 15 16  1  0
 16 17  2  0
  5 18  1  0
 18 19  2  0
 18 20  1  0
 20 21  1  0
 21 22  1  6
 22 23  1  0
 21 24  1  0
 24 25  2  0
 24 26  1  0
 26 27  1  0
 27 28  1  6
 28 29  1  0
 29 30  2  0
 30 31  1  0
 31 32  2  0
 32 33  1  0
 32 34  1  0
 34 35  2  0
 27 36  1  0
 36 37  2  0
 36 38  1  0
 38 39  1  0
 39 40  1  6
 40 41  1  0
 41 42  1  0
 42 43  1  0
 43 44  1  0
 39 45  1  0
 45 46  2  0
 45 47  1  0
 17 12  1  0
 35 29  1  0
M  CHG  3  10   1  44   1  47  -1
M  END
>  <shape_align_shape_tanimoto>  (2) 
0.29355817149721747

>  <shape_align_color_tanimoto>  (2) 
0.075427010582442222

>  <metric>  (2) 
color

>  <metric_score>  (2) 
0.075

>  <template_pid>  (2) 
1JQ9

>  <template_shape_score>  (2) 
0.294

>  <template_color_score>  (2) 
0.075

>  <template_combo_score>  (2) 
0.184

$$$$
1JQ9_combo_pose
     RDKit          3D

 47 48  0  0  0  0  0  0  0  0999 V2000
    2.4218    3.7681   20.2542 C   0  0  0  0  0  0  0  0  0  0  0  0
    3.5423    2.9079   19.7763 C   0  0  0  0  0  0  0  0  0  0  0  0
    3.2281    2.4742   18.3395 C   0  0  0  0  0  0  0  0  0  0  0  0
    3.7899    1.6723   20.6174 C   0  0  0  0  0  0  0  0  0  0  0  0
    4.1101    2.1059   21.9940 C   0  0  2  0  0  0  0  0  0  0  0  0
    5.2796    2.9472   22.0749 N   0  0  0  0  0  0  0  0  0  0  0  0
    5.3193    4.2587   22.5605 C   0  0  0  0  0  0  0  0  0  0  0  0
    4.3155    4.8746   23.0082 O   0  0  0  0  0  0  0  0  0  0  0  0
    6.6597    4.9495   22.5300 C   0  0  1  0  0  0  0  0  0  0  0  0
    6.5386    6.2838   23.0598 N   0  0  0  0  0  0  0  0  0  0  0  0
    7.6068    4.1228   23.3355 C   0  0  0  0  0  0  0  0  0  0  0  0
    8.9779    4.6954   23.3707 C   0  0  0  0  0  0  0  0  0  0  0  0
    9.3977    5.5986   24.3374 C   0  0  0  0  0  0  0  0  0  0  0  0
   10.7027    6.0362   24.2237 C   0  0  0  0  0  0  0  0  0  0  0  0
   11.5674    5.6304   23.2328 C   0  0  0  0  0  0  0  0  0  0  0  0
   11.1389    4.7340   22.2789 C   0  0  0  0  0  0  0  0  0  0  0  0
    9.8421    4.2872   22.3762 C   0  0  0  0  0  0  0  0  0  0  0  0
    4.2840    0.9981   22.9889 C   0  0  0  0  0  0  0  0  0  0  0  0
    5.2438    1.0345   23.8153 O   0  0  0  0  0  0  0  0  0  0  0  0
    3.3390   -0.0454   22.9355 N   0  0  0  0  0  0  0  0  0  0  0  0
    3.3067   -1.2051   23.7997 C   0  0  1  0  0  0  0  0  0  0  0  0
    1.9464   -1.6666   24.1300 C   0  0  0  0  0  0  0  0  0  0  0  0
    1.2639   -0.6361   24.7841 O   0  0  0  0  0  0  0  0  0  0  0  0
    4.1953   -2.2776   23.1950 C   0  0  0  0  0  0  0  0  0  0  0  0
    4.9031   -1.9185   22.2455 O   0  0  0  0  0  0  0  0  0  0  0  0
    4.2076   -3.6013   23.6953 N   0  0  0  0  0  0  0  0  0  0  0  0
    5.0712   -4.5602   23.1313 C   0  0  1  0  0  0  0  0  0  0  0  0
    5.6904   -5.4866   24.1523 C   0  0  0  0  0  0  0  0  0  0  0  0
    4.5744   -6.2033   24.8834 C   0  0  0  0  0  0  0  0  0  0  0  0
    4.0165   -7.3623   24.4312 C   0  0  0  0  0  0  0  0  0  0  0  0
    3.0079   -7.9663   25.1331 C   0  0  0  0  0  0  0  0  0  0  0  0
    2.5158   -7.4225   26.3292 C   0  0  0  0  0  0  0  0  0  0  0  0
    1.4801   -8.0588   27.0314 O   0  0  0  0  0  0  0  0  0  0  0  0
    3.0896   -6.2434   26.7818 C   0  0  0  0  0  0  0  0  0  0  0  0
    4.1083   -5.6469   26.0596 C   0  0  0  0  0  0  0  0  0  0  0  0
    4.5370   -5.3953   22.0199 C   0  0  0  0  0  0  0  0  0  0  0  0
    3.3583   -5.3623   21.6042 O   0  0  0  0  0  0  0  0  0  0  0  0
    5.4759   -6.2756   21.4155 N   0  0  0  0  0  0  0  0  0  0  0  0
    5.0094   -7.1609   20.2472 C   0  0  1  0  0  0  0  0  0  0  0  0
    5.8665   -6.8287   19.1139 C   0  0  0  0  0  0  0  0  0  0  0  0
    5.7173   -7.4389   17.7813 C   0  0  0  0  0  0  0  0  0  0  0  0
    5.8878   -8.9169   17.6246 C   0  0  0  0  0  0  0  0  0  0  0  0
    5.7908   -9.2386   16.1244 C   0  0  0  0  0  0  0  0  0  0  0  0
    4.5296   -8.8284   15.5811 N   0  0  0  0  0  0  0  0  0  0  0  0
    5.2275   -8.5063   20.8098 C   0  0  0  0  0  0  0  0  0  0  0  0
    6.1547   -8.7018   21.6781 O   0  0  0  0  0  0  0  0  0  0  0  0
    4.4999   -9.6409   20.4926 O   0  0  0  0  0  0  0  0  0  0  0  0
  1  2  1  0
  2  3  1  0
  2  4  1  0
  5  4  1  6
  5  6  1  0
  6  7  1  0
  7  8  2  0
  7  9  1  0
  9 10  1  1
  9 11  1  0
 11 12  1  0
 12 13  2  0
 13 14  1  0
 14 15  2  0
 15 16  1  0
 16 17  2  0
  5 18  1  0
 18 19  2  0
 18 20  1  0
 20 21  1  0
 21 22  1  6
 22 23  1  0
 21 24  1  0
 24 25  2  0
 24 26  1  0
 26 27  1  0
 27 28  1  1
 28 29  1  0
 29 30  2  0
 30 31  1  0
 31 32  2  0
 32 33  1  0
 32 34  1  0
 34 35  2  0
 27 36  1  0
 36 37  2  0
 36 38  1  0
 38 39  1  0
 39 40  1  6
 40 41  1  0
 41 42  1  0
 42 43  1  0
 43 44  1  0
 39 45  1  0
 45 46  2  0
 45 47  1  0
 17 12  1  0
 35 29  1  0
M  CHG  3  10   1  44   1  47  -1
M  END
>  <shape_align_shape_tanimoto>  (3) 
0.36286286064068524

>  <shape_align_color_tanimoto>  (3) 
0.028311025667789435

>  <metric>  (3) 
combo

>  <metric_score>  (3) 
0.196

>  <template_pid>  (3) 
1JQ9

>  <template_shape_score>  (3) 
0.363

>  <template_color_score>  (3) 
0.028

>  <template_combo_score>  (3) 
0.196

$$$$
