6E5S_shape_pose
     RDKit          3D

 20 20  0  0  0  0  0  0  0  0999 V2000
    0.3399    1.9924   11.4855 C   0  0  0  0  0  0  0  0  0  0  0  0
    1.2960    1.0871   12.1446 C   0  0  0  0  0  0  0  0  0  0  0  0
    2.5859    1.4031   12.2128 C   0  0  0  0  0  0  0  0  0  0  0  0
    3.1341    2.6588   11.6471 C   0  0  0  0  0  0  0  0  0  0  0  0
    3.4199    0.4089   12.8597 C   0  0  0  0  0  0  0  0  0  0  0  0
    4.7048    0.6815   12.9592 C   0  0  0  0  0  0  0  0  0  0  0  0
    5.5109   -0.3171   13.6028 C   0  0  0  0  0  0  0  0  0  0  0  0
    6.7932   -0.1104   13.7281 C   0  0  0  0  0  0  0  0  0  0  0  0
    7.4794    1.1374   13.2299 C   0  0  0  0  0  0  0  0  0  0  0  0
    7.5027   -1.2157   14.3195 C   0  0  0  0  0  0  0  0  0  0  0  0
    8.2322   -2.0393   14.7926 C   0  0  0  0  0  0  0  0  0  0  0  0
    8.1723   -3.3356   15.3730 C   0  0  0  0  0  0  0  0  0  0  0  0
    9.3149   -3.9090   15.7699 C   0  0  0  0  0  0  0  0  0  0  0  0
   10.6377   -3.1878   15.6107 C   0  0  0  0  0  0  0  0  0  0  0  0
    9.4092   -5.2719   16.3204 C   0  0  0  0  0  0  0  0  0  0  0  0
    8.1491   -5.9044   16.7688 C   0  0  0  0  0  0  0  0  0  0  0  0
    7.0536   -4.9167   16.9366 C   0  0  0  0  0  0  0  0  0  0  0  0
    6.9357   -4.1225   15.6393 C   0  0  0  0  0  0  0  0  0  0  0  0
    5.7687   -3.1895   15.8547 C   0  0  0  0  0  0  0  0  0  0  0  0
    6.6645   -5.0134   14.4602 C   0  0  0  0  0  0  0  0  0  0  0  0
  1  2  1  0
  2  3  2  0
  3  4  1  0
  3  5  1  0
  5  6  2  0
  6  7  1  0
  7  8  2  0
  8  9  1  0
  8 10  1  0
 10 11  2  0
 11 12  1  0
 12 13  2  0
 13 14  1  0
 13 15  1  0
 15 16  1  0
 16 17  1  0
 17 18  1  0
 18 19  1  0
 18 20  1  0
 18 12  1  0
M  END
>  <shape_align_shape_tanimoto>  (1) 
0.45070912914704792

>  <shape_align_color_tanimoto>  (1) 
0

>  <metric>  (1) 
shape

>  <metric_score>  (1) 
0.451

>  <template_pid>  (1) 
6E5S

>  <template_shape_score>  (1) 
0.451

>  <template_color_score>  (1) 
0.000

>  <template_combo_score>  (1) 
0.225

$$$$
6E5S_color_pose
     RDKit          3D

 20 20  0  0  0  0  0  0  0  0999 V2000
    0.3399    1.9924   11.4855 C   0  0  0  0  0  0  0  0  0  0  0  0
    1.2960    1.0871   12.1446 C   0  0  0  0  0  0  0  0  0  0  0  0
    2.5859    1.4031   12.2128 C   0  0  0  0  0  0  0  0  0  0  0  0
    3.1341    2.6588   11.6471 C   0  0  0  0  0  0  0  0  0  0  0  0
    3.4199    0.4089   12.8597 C   0  0  0  0  0  0  0  0  0  0  0  0
    4.7048    0.6815   12.9592 C   0  0  0  0  0  0  0  0  0  0  0  0
    5.5109   -0.3171   13.6028 C   0  0  0  0  0  0  0  0  0  0  0  0
    6.7932   -0.1104   13.7281 C   0  0  0  0  0  0  0  0  0  0  0  0
    7.4794    1.1374   13.2299 C   0  0  0  0  0  0  0  0  0  0  0  0
    7.5027   -1.2157   14.3195 C   0  0  0  0  0  0  0  0  0  0  0  0
    8.2322   -2.0393   14.7926 C   0  0  0  0  0  0  0  0  0  0  0  0
    8.1723   -3.3356   15.3730 C   0  0  0  0  0  0  0  0  0  0  0  0
    9.3149   -3.9090   15.7699 C   0  0  0  0  0  0  0  0  0  0  0  0
   10.6377   -3.1878   15.6107 C   0  0  0  0  0  0  0  0  0  0  0  0
    9.4092   -5.2719   16.3204 C   0  0  0  0  0  0  0  0  0  0  0  0
    8.1491   -5.9044   16.7688 C   0  0  0  0  0  0  0  0  0  0  0  0
    7.0536   -4.9167   16.9366 C   0  0  0  0  0  0  0  0  0  0  0  0
    6.9357   -4.1225   15.6393 C   0  0  0  0  0  0  0  0  0  0  0  0
    5.7687   -3.1895   15.8547 C   0  0  0  0  0  0  0  0  0  0  0  0
    6.6645   -5.0134   14.4602 C   0  0  0  0  0  0  0  0  0  0  0  0
  1  2  1  0
  2  3  2  0
  3  4  1  0
  3  5  1  0
  5  6  2  0
  6  7  1  0
  7  8  2  0
  8  9  1  0
  8 10  1  0
 10 11  2  0
 11 12  1  0
 12 13  2  0
 13 14  1  0
 13 15  1  0
 15 16  1  0
 16 17  1  0
 17 18  1  0
 18 19  1  0
 18 20  1  0
 18 12  1  0
M  END
>  <shape_align_shape_tanimoto>  (2) 
0.45070912914704792

>  <shape_align_color_tanimoto>  (2) 
0

>  <metric>  (2) 
color

>  <metric_score>  (2) 
0.000

>  <template_pid>  (2) 
6E5S

>  <template_shape_score>  (2) 
0.451

>  <template_color_score>  (2) 
0.000

>  <template_combo_score>  (2) 
0.225

$$$$
6E5S_combo_pose
     RDKit          3D

 20 20  0  0  0  0  0  0  0  0999 V2000
    0.3399    1.9924   11.4855 C   0  0  0  0  0  0  0  0  0  0  0  0
    1.2960    1.0871   12.1446 C   0  0  0  0  0  0  0  0  0  0  0  0
    2.5859    1.4031   12.2128 C   0  0  0  0  0  0  0  0  0  0  0  0
    3.1341    2.6588   11.6471 C   0  0  0  0  0  0  0  0  0  0  0  0
    3.4199    0.4089   12.8597 C   0  0  0  0  0  0  0  0  0  0  0  0
    4.7048    0.6815   12.9592 C   0  0  0  0  0  0  0  0  0  0  0  0
    5.5109   -0.3171   13.6028 C   0  0  0  0  0  0  0  0  0  0  0  0
    6.7932   -0.1104   13.7281 C   0  0  0  0  0  0  0  0  0  0  0  0
    7.4794    1.1374   13.2299 C   0  0  0  0  0  0  0  0  0  0  0  0
    7.5027   -1.2157   14.3195 C   0  0  0  0  0  0  0  0  0  0  0  0
    8.2322   -2.0393   14.7926 C   0  0  0  0  0  0  0  0  0  0  0  0
    8.1723   -3.3356   15.3730 C   0  0  0  0  0  0  0  0  0  0  0  0
    9.3149   -3.9090   15.7699 C   0  0  0  0  0  0  0  0  0  0  0  0
   10.6377   -3.1878   15.6107 C   0  0  0  0  0  0  0  0  0  0  0  0
    9.4092   -5.2719   16.3204 C   0  0  0  0  0  0  0  0  0  0  0  0
    8.1491   -5.9044   16.7688 C   0  0  0  0  0  0  0  0  0  0  0  0
    7.0536   -4.9167   16.9366 C   0  0  0  0  0  0  0  0  0  0  0  0
    6.9357   -4.1225   15.6393 C   0  0  0  0  0  0  0  0  0  0  0  0
    5.7687   -3.1895   15.8547 C   0  0  0  0  0  0  0  0  0  0  0  0
    6.6645   -5.0134   14.4602 C   0  0  0  0  0  0  0  0  0  0  0  0
  1  2  1  0
  2  3  2  0
  3  4  1  0
  3  5  1  0
  5  6  2  0
  6  7  1  0
  7  8  2  0
  8  9  1  0
  8 10  1  0
 10 11  2  0
 11 12  1  0
 12 13  2  0
 13 14  1  0
 13 15  1  0
 15 16  1  0
 16 17  1  0
 17 18  1  0
 18 19  1  0
 18 20  1  0
 18 12  1  0
M  END
>  <shape_align_shape_tanimoto>  (3) 
0.45070912914704792

>  <shape_align_color_tanimoto>  (3) 
0

>  <metric>  (3) 
combo

>  <metric_score>  (3) 
0.225

>  <template_pid>  (3) 
6E5S

>  <template_shape_score>  (3) 
0.451

>  <template_color_score>  (3) 
0.000

>  <template_combo_score>  (3) 
0.225

$$$$
