4BO4_shape_pose
     RDKit          3D

 21 23  0  0  0  0  0  0  0  0999 V2000
  -29.1667  -13.4100   36.6745 C   0  0  0  0  0  0  0  0  0  0  0  0
  -28.7487  -14.6979   36.2483 O   0  0  0  0  0  0  0  0  0  0  0  0
  -29.5032  -15.8492   36.4563 C   0  0  0  0  0  0  0  0  0  0  0  0
  -30.7041  -15.6904   37.1089 C   0  0  0  0  0  0  0  0  0  0  0  0
  -31.5372  -16.7557   37.3717 C   0  0  0  0  0  0  0  0  0  0  0  0
  -31.1131  -17.9967   36.9500 C   0  0  0  0  0  0  0  0  0  0  0  0
  -29.8927  -18.1530   36.2877 C   0  0  0  0  0  0  0  0  0  0  0  0
  -29.0535  -17.1048   36.0189 C   0  0  0  0  0  0  0  0  0  0  0  0
  -27.8147  -17.1684   35.3620 N   0  0  0  0  0  0  0  0  0  0  0  0
  -27.1715  -18.3169   34.8411 C   0  0  0  0  0  0  0  0  0  0  0  0
  -27.7502  -19.4073   34.9656 O   0  0  0  0  0  0  0  0  0  0  0  0
  -25.9065  -18.2631   34.1908 N   0  0  0  0  0  0  0  0  0  0  0  0
  -25.0705  -17.0894   34.0934 C   0  0  0  0  0  0  0  0  0  0  0  0
  -23.7204  -17.3790   34.7599 C   0  0  0  0  0  0  0  0  0  0  0  0
  -23.0493  -18.5803   34.1556 C   0  0  0  0  0  0  0  0  0  0  0  0
  -23.9822  -19.5654   33.6016 C   0  0  0  0  0  0  0  0  0  0  0  0
  -23.4472  -20.7092   33.0298 C   0  0  0  0  0  0  0  0  0  0  0  0
  -24.2676  -21.6855   32.4756 C   0  0  0  0  0  0  0  0  0  0  0  0
  -25.6543  -21.5557   32.4715 C   0  0  0  0  0  0  0  0  0  0  0  0
  -26.1867  -20.4191   33.0395 C   0  0  0  0  0  0  0  0  0  0  0  0
  -25.3526  -19.4551   33.5889 C   0  0  0  0  0  0  0  0  0  0  0  0
  1  2  1  0
  2  3  1  0
  3  4  2  0
  4  5  1  0
  5  6  2  0
  6  7  1  0
  7  8  2  0
  8  9  1  0
  9 10  1  0
 10 11  2  0
 10 12  1  0
 12 13  1  0
 13 14  1  0
 14 15  1  0
 15 16  1  0
 16 17  2  0
 17 18  1  0
 18 19  2  0
 19 20  1  0
 20 21  2  0
  8  3  1  0
 21 12  1  0
 21 16  1  0
M  END
>  <shape_align_shape_tanimoto>  (1) 
0.82681272457845201

>  <shape_align_color_tanimoto>  (1) 
0.13913290603553924

>  <metric>  (1) 
shape

>  <metric_score>  (1) 
0.827

>  <template_pid>  (1) 
4BO4

>  <template_shape_score>  (1) 
0.827

>  <template_color_score>  (1) 
0.139

>  <template_combo_score>  (1) 
0.483

$$$$
4BO4_color_pose
     RDKit          3D

 21 23  0  0  0  0  0  0  0  0999 V2000
  -30.7423  -15.5664   33.2765 C   0  0  0  0  0  0  0  0  0  0  0  0
  -29.7173  -15.9778   34.1522 O   0  0  0  0  0  0  0  0  0  0  0  0
  -29.8857  -16.2398   35.5019 C   0  0  0  0  0  0  0  0  0  0  0  0
  -31.0979  -16.1252   36.1511 C   0  0  0  0  0  0  0  0  0  0  0  0
  -31.1872  -16.3998   37.4810 C   0  0  0  0  0  0  0  0  0  0  0  0
  -30.1037  -16.7974   38.2382 C   0  0  0  0  0  0  0  0  0  0  0  0
  -28.8891  -16.9131   37.5915 C   0  0  0  0  0  0  0  0  0  0  0  0
  -28.7646  -16.6397   36.2329 C   0  0  0  0  0  0  0  0  0  0  0  0
  -27.5013  -16.7606   35.5629 N   0  0  0  0  0  0  0  0  0  0  0  0
  -27.1052  -18.0109   34.9564 C   0  0  0  0  0  0  0  0  0  0  0  0
  -27.9396  -18.9402   35.0683 O   0  0  0  0  0  0  0  0  0  0  0  0
  -25.8600  -18.0986   34.3067 N   0  0  0  0  0  0  0  0  0  0  0  0
  -24.9509  -16.9703   34.2953 C   0  0  0  0  0  0  0  0  0  0  0  0
  -23.5277  -17.3772   33.9895 C   0  0  0  0  0  0  0  0  0  0  0  0
  -23.2468  -18.8032   34.4169 C   0  0  0  0  0  0  0  0  0  0  0  0
  -24.1699  -19.7514   33.6961 C   0  0  0  0  0  0  0  0  0  0  0  0
  -23.7434  -20.9100   33.1180 C   0  0  0  0  0  0  0  0  0  0  0  0
  -24.7103  -21.6849   32.4786 C   0  0  0  0  0  0  0  0  0  0  0  0
  -26.0304  -21.2740   32.4476 C   0  0  0  0  0  0  0  0  0  0  0  0
  -26.4571  -20.0918   33.0393 C   0  0  0  0  0  0  0  0  0  0  0  0
  -25.5065  -19.3319   33.6671 C   0  0  0  0  0  0  0  0  0  0  0  0
  1  2  1  0
  2  3  1  0
  3  4  2  0
  4  5  1  0
  5  6  2  0
  6  7  1  0
  7  8  2  0
  8  9  1  0
  9 10  1  0
 10 11  2  0
 10 12  1  0
 12 13  1  0
 13 14  1  0
 14 15  1  0
 15 16  1  0
 16 17  2  0
 17 18  1  0
 18 19  2  0
 19 20  1  0
 20 21  2  0
  8  3  1  0
 21 12  1  0
 21 16  1  0
M  END
>  <shape_align_shape_tanimoto>  (2) 
0.67073409797540628

>  <shape_align_color_tanimoto>  (2) 
0.15515494205702554

>  <metric>  (2) 
color

>  <metric_score>  (2) 
0.155

>  <template_pid>  (2) 
4BO4

>  <template_shape_score>  (2) 
0.671

>  <template_color_score>  (2) 
0.155

>  <template_combo_score>  (2) 
0.413

$$$$
4BO4_combo_pose
     RDKit          3D

 21 23  0  0  0  0  0  0  0  0999 V2000
  -29.1667  -13.4100   36.6745 C   0  0  0  0  0  0  0  0  0  0  0  0
  -28.7487  -14.6979   36.2483 O   0  0  0  0  0  0  0  0  0  0  0  0
  -29.5032  -15.8492   36.4563 C   0  0  0  0  0  0  0  0  0  0  0  0
  -30.7041  -15.6904   37.1089 C   0  0  0  0  0  0  0  0  0  0  0  0
  -31.5372  -16.7557   37.3717 C   0  0  0  0  0  0  0  0  0  0  0  0
  -31.1131  -17.9967   36.9500 C   0  0  0  0  0  0  0  0  0  0  0  0
  -29.8927  -18.1530   36.2877 C   0  0  0  0  0  0  0  0  0  0  0  0
  -29.0535  -17.1048   36.0189 C   0  0  0  0  0  0  0  0  0  0  0  0
  -27.8147  -17.1684   35.3620 N   0  0  0  0  0  0  0  0  0  0  0  0
  -27.1715  -18.3169   34.8411 C   0  0  0  0  0  0  0  0  0  0  0  0
  -27.7502  -19.4073   34.9656 O   0  0  0  0  0  0  0  0  0  0  0  0
  -25.9065  -18.2631   34.1908 N   0  0  0  0  0  0  0  0  0  0  0  0
  -25.0705  -17.0894   34.0934 C   0  0  0  0  0  0  0  0  0  0  0  0
  -23.7204  -17.3790   34.7599 C   0  0  0  0  0  0  0  0  0  0  0  0
  -23.0493  -18.5803   34.1556 C   0  0  0  0  0  0  0  0  0  0  0  0
  -23.9822  -19.5654   33.6016 C   0  0  0  0  0  0  0  0  0  0  0  0
  -23.4472  -20.7092   33.0298 C   0  0  0  0  0  0  0  0  0  0  0  0
  -24.2676  -21.6855   32.4756 C   0  0  0  0  0  0  0  0  0  0  0  0
  -25.6543  -21.5557   32.4715 C   0  0  0  0  0  0  0  0  0  0  0  0
  -26.1867  -20.4191   33.0395 C   0  0  0  0  0  0  0  0  0  0  0  0
  -25.3526  -19.4551   33.5889 C   0  0  0  0  0  0  0  0  0  0  0  0
  1  2  1  0
  2  3  1  0
  3  4  2  0
  4  5  1  0
  5  6  2  0
  6  7  1  0
  7  8  2  0
  8  9  1  0
  9 10  1  0
 10 11  2  0
 10 12  1  0
 12 13  1  0
 13 14  1  0
 14 15  1  0
 15 16  1  0
 16 17  2  0
 17 18  1  0
 18 19  2  0
 19 20  1  0
 20 21  2  0
  8  3  1  0
 21 12  1  0
 21 16  1  0
M  END
>  <shape_align_shape_tanimoto>  (3) 
0.82681272457845201

>  <shape_align_color_tanimoto>  (3) 
0.13913290603553924

>  <metric>  (3) 
combo

>  <metric_score>  (3) 
0.483

>  <template_pid>  (3) 
4BO4

>  <template_shape_score>  (3) 
0.827

>  <template_color_score>  (3) 
0.139

>  <template_combo_score>  (3) 
0.483

$$$$
