6IQL_shape_pose
     RDKit          3D

 23 26  0  0  0  0  0  0  0  0999 V2000
    0.3016  -34.6217   -1.3159 Cl  0  0  0  0  0  0  0  0  0  0  0  0
    1.0543  -34.0724   -2.7973 C   0  0  0  0  0  0  0  0  0  0  0  0
    0.3702  -34.0545   -3.9852 C   0  0  0  0  0  0  0  0  0  0  0  0
    0.9598  -33.6226   -5.1537 C   0  0  0  0  0  0  0  0  0  0  0  0
    2.2613  -33.1842   -5.2080 C   0  0  0  0  0  0  0  0  0  0  0  0
    2.9032  -32.7344   -6.3902 N   0  0  0  0  0  0  0  0  0  0  0  0
    2.2911  -32.7319   -7.6994 C   0  0  0  0  0  0  0  0  0  0  0  0
    2.4851  -31.3360   -8.2423 C   0  0  0  0  0  0  0  0  0  0  0  0
    3.8920  -31.0641   -8.4660 N   0  0  0  0  0  0  0  0  0  0  0  0
    4.0300  -29.6489   -8.6714 C   0  0  0  0  0  0  0  0  0  0  0  0
    4.9916  -28.9588   -7.8089 C   0  0  0  0  0  0  0  0  0  0  0  0
    6.2580  -28.5644   -8.2234 C   0  0  0  0  0  0  0  0  0  0  0  0
    6.8954  -27.9621   -7.1948 N   0  0  0  0  0  0  0  0  0  0  0  0
    6.0950  -27.9406   -6.1039 C   0  0  0  0  0  0  0  0  0  0  0  0
    6.2196  -27.4758   -4.8437 N   0  0  0  0  0  0  0  0  0  0  0  0
    5.2085  -27.6000   -3.9341 C   0  0  0  0  0  0  0  0  0  0  0  0
    4.0090  -28.2094   -4.2654 C   0  0  0  0  0  0  0  0  0  0  0  0
    3.9139  -28.6779   -5.5741 C   0  0  0  0  0  0  0  0  0  0  0  0
    4.9166  -28.5595   -6.4904 C   0  0  0  0  0  0  0  0  0  0  0  0
    4.7915  -31.6397   -7.5400 C   0  0  0  0  0  0  0  0  0  0  0  0
    4.2629  -32.2384   -6.3000 C   0  0  0  0  0  0  0  0  0  0  0  0
    2.9648  -33.1985   -4.0064 C   0  0  0  0  0  0  0  0  0  0  0  0
    2.3736  -33.6340   -2.8236 C   0  0  0  0  0  0  0  0  0  0  0  0
  1  2  1  0
  2  3  2  0
  3  4  1  0
  4  5  2  0
  5  6  1  0
  6  7  1  0
  7  8  1  0
  8  9  1  0
  9 10  1  0
 10 11  1  0
 11 12  2  0
 12 13  1  0
 13 14  1  0
 14 15  2  0
 15 16  1  0
 16 17  2  0
 17 18  1  0
 18 19  2  0
  9 20  1  0
 20 21  1  0
  5 22  1  0
 22 23  2  0
 23  2  1  0
 21  6  1  0
 19 11  1  0
 19 14  1  0
M  CHG  1   9   1
M  END
>  <shape_align_shape_tanimoto>  (1) 
0.6664858218655455

>  <shape_align_color_tanimoto>  (1) 
0.04679808600351075

>  <metric>  (1) 
shape

>  <metric_score>  (1) 
0.666

>  <template_pid>  (1) 
6IQL

>  <template_shape_score>  (1) 
0.666

>  <template_color_score>  (1) 
0.047

>  <template_combo_score>  (1) 
0.357

$$$$
6IQL_color_pose
     RDKit          3D

 23 26  0  0  0  0  0  0  0  0999 V2000
    7.4401  -26.1921   -6.6822 Cl  0  0  0  0  0  0  0  0  0  0  0  0
    6.3093  -27.5386   -6.6362 C   0  0  0  0  0  0  0  0  0  0  0  0
    5.8138  -27.9497   -5.4224 C   0  0  0  0  0  0  0  0  0  0  0  0
    4.9173  -29.0279   -5.4281 C   0  0  0  0  0  0  0  0  0  0  0  0
    4.5416  -29.6576   -6.5987 C   0  0  0  0  0  0  0  0  0  0  0  0
    3.6466  -30.7625   -6.5558 N   0  0  0  0  0  0  0  0  0  0  0  0
    3.4571  -31.5507   -5.3182 C   0  0  0  0  0  0  0  0  0  0  0  0
    3.9027  -32.9286   -5.7788 C   0  0  0  0  0  0  0  0  0  0  0  0
    3.1182  -33.5288   -6.7726 N   0  0  0  0  0  0  0  0  0  0  0  0
    2.0978  -34.4425   -6.3281 C   0  0  0  0  0  0  0  0  0  0  0  0
    1.2003  -34.0033   -5.2747 C   0  0  0  0  0  0  0  0  0  0  0  0
   -0.0357  -33.3846   -5.5457 C   0  0  0  0  0  0  0  0  0  0  0  0
   -0.6277  -33.0512   -4.3852 N   0  0  0  0  0  0  0  0  0  0  0  0
    0.1423  -33.4134   -3.3539 C   0  0  0  0  0  0  0  0  0  0  0  0
   -0.0027  -33.3187   -2.0163 N   0  0  0  0  0  0  0  0  0  0  0  0
    0.9460  -33.7950   -1.1685 C   0  0  0  0  0  0  0  0  0  0  0  0
    2.0839  -34.3893   -1.6800 C   0  0  0  0  0  0  0  0  0  0  0  0
    2.2188  -34.4786   -3.0450 C   0  0  0  0  0  0  0  0  0  0  0  0
    1.2724  -34.0022   -3.9026 C   0  0  0  0  0  0  0  0  0  0  0  0
    2.6389  -32.6554   -7.8155 C   0  0  0  0  0  0  0  0  0  0  0  0
    2.8436  -31.2057   -7.6764 C   0  0  0  0  0  0  0  0  0  0  0  0
    5.0778  -29.1937   -7.7926 C   0  0  0  0  0  0  0  0  0  0  0  0
    5.9749  -28.1207   -7.8270 C   0  0  0  0  0  0  0  0  0  0  0  0
  1  2  1  0
  2  3  2  0
  3  4  1  0
  4  5  2  0
  5  6  1  0
  6  7  1  0
  7  8  1  0
  8  9  1  0
  9 10  1  0
 10 11  1  0
 11 12  2  0
 12 13  1  0
 13 14  1  0
 14 15  2  0
 15 16  1  0
 16 17  2  0
 17 18  1  0
 18 19  2  0
  9 20  1  0
 20 21  1  0
  5 22  1  0
 22 23  2  0
 23  2  1  0
 21  6  1  0
 19 11  1  0
 19 14  1  0
M  CHG  1   9   1
M  END
>  <shape_align_shape_tanimoto>  (2) 
0.52221452143441605

>  <shape_align_color_tanimoto>  (2) 
0.096559069333435957

>  <metric>  (2) 
color

>  <metric_score>  (2) 
0.097

>  <template_pid>  (2) 
6IQL

>  <template_shape_score>  (2) 
0.522

>  <template_color_score>  (2) 
0.097

>  <template_combo_score>  (2) 
0.309

$$$$
6IQL_combo_pose
     RDKit          3D

 23 26  0  0  0  0  0  0  0  0999 V2000
    9.4139  -26.8913   -7.2882 Cl  0  0  0  0  0  0  0  0  0  0  0  0
    7.8594  -27.6965   -7.2579 C   0  0  0  0  0  0  0  0  0  0  0  0
    7.1262  -27.8705   -6.1027 C   0  0  0  0  0  0  0  0  0  0  0  0
    5.8855  -28.5207   -6.1175 C   0  0  0  0  0  0  0  0  0  0  0  0
    5.3467  -29.0129   -7.2860 C   0  0  0  0  0  0  0  0  0  0  0  0
    4.1027  -29.6562   -7.2855 N   0  0  0  0  0  0  0  0  0  0  0  0
    3.2298  -29.7285   -6.1203 C   0  0  0  0  0  0  0  0  0  0  0  0
    3.2169  -31.1763   -5.6619 C   0  0  0  0  0  0  0  0  0  0  0  0
    3.4793  -32.0395   -6.7906 N   0  0  0  0  0  0  0  0  0  0  0  0
    3.1894  -33.4122   -6.5612 C   0  0  0  0  0  0  0  0  0  0  0  0
    2.0703  -33.7155   -5.6692 C   0  0  0  0  0  0  0  0  0  0  0  0
    0.7983  -34.0624   -6.1427 C   0  0  0  0  0  0  0  0  0  0  0  0
   -0.0298  -34.2675   -5.1014 N   0  0  0  0  0  0  0  0  0  0  0  0
    0.6548  -34.0678   -3.9671 C   0  0  0  0  0  0  0  0  0  0  0  0
    0.2796  -34.1537   -2.6753 N   0  0  0  0  0  0  0  0  0  0  0  0
    1.1419  -33.9146   -1.6686 C   0  0  0  0  0  0  0  0  0  0  0  0
    2.4491  -33.5718   -2.0014 C   0  0  0  0  0  0  0  0  0  0  0  0
    2.8688  -33.4742   -3.3104 C   0  0  0  0  0  0  0  0  0  0  0  0
    1.9536  -33.7266   -4.2998 C   0  0  0  0  0  0  0  0  0  0  0  0
    2.7915  -31.5080   -7.9604 C   0  0  0  0  0  0  0  0  0  0  0  0
    3.5796  -30.3266   -8.4882 C   0  0  0  0  0  0  0  0  0  0  0  0
    6.0817  -28.8372   -8.4366 C   0  0  0  0  0  0  0  0  0  0  0  0
    7.3237  -28.1876   -8.4296 C   0  0  0  0  0  0  0  0  0  0  0  0
  1  2  1  0
  2  3  2  0
  3  4  1  0
  4  5  2  0
  5  6  1  0
  6  7  1  0
  7  8  1  0
  8  9  1  0
  9 10  1  0
 10 11  1  0
 11 12  2  0
 12 13  1  0
 13 14  1  0
 14 15  2  0
 15 16  1  0
 16 17  2  0
 17 18  1  0
 18 19  2  0
  9 20  1  0
 20 21  1  0
  5 22  1  0
 22 23  2  0
 23  2  1  0
 21  6  1  0
 19 11  1  0
 19 14  1  0
M  CHG  1   9   1
M  END
>  <shape_align_shape_tanimoto>  (3) 
0.65080748313553816

>  <shape_align_color_tanimoto>  (3) 
0.068652343613846062

>  <metric>  (3) 
combo

>  <metric_score>  (3) 
0.360

>  <template_pid>  (3) 
6IQL

>  <template_shape_score>  (3) 
0.651

>  <template_color_score>  (3) 
0.069

>  <template_combo_score>  (3) 
0.360

$$$$
