1ME8_shape_pose
     RDKit          3D

 21 22  0  0  0  0  0  0  0  0999 V2000
   24.5299    3.7920   43.5359 N   0  0  0  0  0  0  0  0  0  0  0  0
   25.4052    4.0546   42.4428 C   0  0  0  0  0  0  0  0  0  0  0  0
   26.4879    3.4297   42.2805 O   0  0  0  0  0  0  0  0  0  0  0  0
   25.0421    5.0852   41.4685 C   0  0  0  0  0  0  0  0  0  0  0  0
   25.7438    5.4566   40.3906 N   0  0  0  0  0  0  0  0  0  0  0  0
   25.0610    6.4299   39.7674 C   0  0  0  0  0  0  0  0  0  0  0  0
   23.9272    6.6732   40.4524 N   0  0  0  0  0  0  0  0  0  0  0  0
   22.8700    7.6276   40.1797 C   0  0  2  0  0  0  0  0  0  0  0  0
   23.3034    8.5146   39.2285 O   0  0  0  0  0  0  0  0  0  0  0  0
   23.6500    9.7015   39.8539 C   0  0  2  0  0  0  0  0  0  0  0  0
   24.9635    9.5989   40.6232 C   0  0  0  0  0  0  0  0  0  0  0  0
   25.2155   10.8328   41.2066 O   0  0  0  0  0  0  0  0  0  0  0  0
   26.6397   10.8592   42.0885 P   0  0  0  0  0  0  0  0  0  0  0  0
   27.8265   10.3856   41.2739 O   0  0  0  0  0  0  0  0  0  0  0  0
   26.9101   12.4784   42.5586 O   0  0  0  0  0  0  0  0  0  0  0  0
   26.5110    9.9521   43.5092 O   0  0  0  0  0  0  0  0  0  0  0  0
   22.5197    9.8299   40.8840 C   0  0  1  0  0  0  0  0  0  0  0  0
   21.3654   10.0940   40.1532 O   0  0  0  0  0  0  0  0  0  0  0  0
   22.4642    8.4052   41.3977 C   0  0  1  0  0  0  0  0  0  0  0  0
   21.1063    8.1737   41.7156 O   0  0  0  0  0  0  0  0  0  0  0  0
   23.9289    5.8470   41.4860 N   0  0  0  0  0  0  0  0  0  0  0  0
  1  2  1  0
  2  3  2  0
  2  4  1  0
  4  5  1  0
  5  6  2  0
  6  7  1  0
  8  7  1  1
  8  9  1  0
  9 10  1  0
 10 11  1  1
 11 12  1  0
 12 13  1  0
 13 14  2  0
 13 15  1  0
 13 16  1  0
 10 17  1  0
 17 18  1  6
 17 19  1  0
 19 20  1  6
  7 21  1  0
 21  4  2  0
 19  8  1  0
M  END
>  <shape_align_shape_tanimoto>  (1) 
0.66433821390319514

>  <shape_align_color_tanimoto>  (1) 
0.10801123308993651

>  <metric>  (1) 
shape

>  <metric_score>  (1) 
0.664

>  <template_pid>  (1) 
1ME8

>  <template_shape_score>  (1) 
0.664

>  <template_color_score>  (1) 
0.108

>  <template_combo_score>  (1) 
0.386

$$$$
1ME8_color_pose
     RDKit          3D

 21 22  0  0  0  0  0  0  0  0999 V2000
   20.0672   12.5148   39.0102 N   0  0  0  0  0  0  0  0  0  0  0  0
   19.9123   11.7645   40.2117 C   0  0  0  0  0  0  0  0  0  0  0  0
   19.0147   11.9564   41.0482 O   0  0  0  0  0  0  0  0  0  0  0  0
   20.8739   10.6965   40.4791 C   0  0  0  0  0  0  0  0  0  0  0  0
   20.8776    9.8865   41.5674 N   0  0  0  0  0  0  0  0  0  0  0  0
   21.9005    9.0259   41.4802 C   0  0  0  0  0  0  0  0  0  0  0  0
   22.5540    9.2882   40.3288 N   0  0  0  0  0  0  0  0  0  0  0  0
   23.7195    8.5448   39.9094 C   0  0  2  0  0  0  0  0  0  0  0  0
   23.5357    7.1681   40.0260 O   0  0  0  0  0  0  0  0  0  0  0  0
   24.7943    6.6560   39.8289 C   0  0  2  0  0  0  0  0  0  0  0  0
   25.0281    5.3606   40.5756 C   0  0  0  0  0  0  0  0  0  0  0  0
   24.8739    5.5540   41.9365 O   0  0  0  0  0  0  0  0  0  0  0  0
   25.1458    4.0739   42.7323 P   0  0  0  0  0  0  0  0  0  0  0  0
   26.3977    3.3866   42.2328 O   0  0  0  0  0  0  0  0  0  0  0  0
   23.7491    3.1364   42.4203 O   0  0  0  0  0  0  0  0  0  0  0  0
   25.3426    4.2817   44.3955 O   0  0  0  0  0  0  0  0  0  0  0  0
   25.8122    7.6566   40.3021 C   0  0  1  0  0  0  0  0  0  0  0  0
   26.4505    8.1869   39.1764 O   0  0  0  0  0  0  0  0  0  0  0  0
   24.8883    8.7484   40.8584 C   0  0  1  0  0  0  0  0  0  0  0  0
   25.4703   10.0040   40.7423 O   0  0  0  0  0  0  0  0  0  0  0  0
   21.9260   10.2939   39.7382 N   0  0  0  0  0  0  0  0  0  0  0  0
  1  2  1  0
  2  3  2  0
  2  4  1  0
  4  5  1  0
  5  6  2  0
  6  7  1  0
  8  7  1  1
  8  9  1  0
  9 10  1  0
 10 11  1  1
 11 12  1  0
 12 13  1  0
 13 14  2  0
 13 15  1  0
 13 16  1  0
 10 17  1  0
 17 18  1  6
 17 19  1  0
 19 20  1  6
  7 21  1  0
 21  4  2  0
 19  8  1  0
M  END
>  <shape_align_shape_tanimoto>  (2) 
0.63655381544722534

>  <shape_align_color_tanimoto>  (2) 
0.22870560007608595

>  <metric>  (2) 
color

>  <metric_score>  (2) 
0.229

>  <template_pid>  (2) 
1ME8

>  <template_shape_score>  (2) 
0.637

>  <template_color_score>  (2) 
0.229

>  <template_combo_score>  (2) 
0.433

$$$$
1ME8_combo_pose
     RDKit          3D

 21 22  0  0  0  0  0  0  0  0999 V2000
   20.0672   12.5148   39.0102 N   0  0  0  0  0  0  0  0  0  0  0  0
   19.9123   11.7645   40.2117 C   0  0  0  0  0  0  0  0  0  0  0  0
   19.0147   11.9564   41.0482 O   0  0  0  0  0  0  0  0  0  0  0  0
   20.8739   10.6965   40.4791 C   0  0  0  0  0  0  0  0  0  0  0  0
   20.8776    9.8865   41.5674 N   0  0  0  0  0  0  0  0  0  0  0  0
   21.9005    9.0259   41.4802 C   0  0  0  0  0  0  0  0  0  0  0  0
   22.5540    9.2882   40.3288 N   0  0  0  0  0  0  0  0  0  0  0  0
   23.7195    8.5448   39.9094 C   0  0  2  0  0  0  0  0  0  0  0  0
   23.5357    7.1681   40.0260 O   0  0  0  0  0  0  0  0  0  0  0  0
   24.7943    6.6560   39.8289 C   0  0  2  0  0  0  0  0  0  0  0  0
   25.0281    5.3606   40.5756 C   0  0  0  0  0  0  0  0  0  0  0  0
   24.8739    5.5540   41.9365 O   0  0  0  0  0  0  0  0  0  0  0  0
   25.1458    4.0739   42.7323 P   0  0  0  0  0  0  0  0  0  0  0  0
   26.3977    3.3866   42.2328 O   0  0  0  0  0  0  0  0  0  0  0  0
   23.7491    3.1364   42.4203 O   0  0  0  0  0  0  0  0  0  0  0  0
   25.3426    4.2817   44.3955 O   0  0  0  0  0  0  0  0  0  0  0  0
   25.8122    7.6566   40.3021 C   0  0  1  0  0  0  0  0  0  0  0  0
   26.4505    8.1869   39.1764 O   0  0  0  0  0  0  0  0  0  0  0  0
   24.8883    8.7484   40.8584 C   0  0  1  0  0  0  0  0  0  0  0  0
   25.4703   10.0040   40.7423 O   0  0  0  0  0  0  0  0  0  0  0  0
   21.9260   10.2939   39.7382 N   0  0  0  0  0  0  0  0  0  0  0  0
  1  2  1  0
  2  3  2  0
  2  4  1  0
  4  5  1  0
  5  6  2  0
  6  7  1  0
  8  7  1  1
  8  9  1  0
  9 10  1  0
 10 11  1  1
 11 12  1  0
 12 13  1  0
 13 14  2  0
 13 15  1  0
 13 16  1  0
 10 17  1  0
 17 18  1  6
 17 19  1  0
 19 20  1  6
  7 21  1  0
 21  4  2  0
 19  8  1  0
M  END
>  <shape_align_shape_tanimoto>  (3) 
0.63655381544722534

>  <shape_align_color_tanimoto>  (3) 
0.22870560007608595

>  <metric>  (3) 
combo

>  <metric_score>  (3) 
0.433

>  <template_pid>  (3) 
1ME8

>  <template_shape_score>  (3) 
0.637

>  <template_color_score>  (3) 
0.229

>  <template_combo_score>  (3) 
0.433

$$$$
