3FCL_shape_pose
     RDKit          3D

 25 26  0  0  0  0  0  0  0  0999 V2000
   10.5582   44.0253    6.3597 O   0  0  0  0  0  0  0  0  0  0  0  0
   11.3444   44.1597    7.3461 C   0  0  0  0  0  0  0  0  0  0  0  0
   12.2728   45.3100    7.3518 C   0  0  0  0  0  0  0  0  0  0  0  0
   13.1068   45.3062    8.5694 C   0  0  0  0  0  0  0  0  0  0  0  0
   14.0998   46.4353    8.6936 C   0  0  0  0  0  0  0  0  0  0  0  0
   14.8509   46.3035    9.9406 N   0  0  0  0  0  0  0  0  0  0  0  0
   16.0664   45.5937    9.7884 C   0  0  0  0  0  0  0  0  0  0  0  0
   16.5244   44.7185   10.8829 C   0  0  0  0  0  0  0  0  0  0  0  0
   16.7863   45.3094   12.2102 C   0  0  0  0  0  0  0  0  0  0  0  0
   15.6757   45.9716   12.9302 C   0  0  0  0  0  0  0  0  0  0  0  0
   14.5664   45.0723   13.2150 N   0  0  0  0  0  0  0  0  0  0  0  0
   13.4351   45.8991   13.5940 C   0  0  0  0  0  0  0  0  0  0  0  0
   12.9445   45.3931   14.9038 C   0  0  0  0  0  0  0  0  0  0  0  0
   13.4438   45.8971   16.1055 C   0  0  0  0  0  0  0  0  0  0  0  0
   13.0073   45.4467   17.3312 C   0  0  0  0  0  0  0  0  0  0  0  0
   12.0427   44.4626   17.3988 C   0  0  0  0  0  0  0  0  0  0  0  0
   11.5339   43.9487   16.2239 C   0  0  0  0  0  0  0  0  0  0  0  0
   10.5124   42.9067   16.2601 C   0  0  0  0  0  0  0  0  0  0  0  0
   10.0687   42.4588   15.1602 O   0  0  0  0  0  0  0  0  0  0  0  0
   10.0511   42.4310   17.4854 O   0  0  0  0  0  0  0  0  0  0  0  0
   11.9784   44.4073   14.9999 C   0  0  0  0  0  0  0  0  0  0  0  0
   13.0684   44.4502    9.5142 N   0  0  0  0  0  0  0  0  0  0  0  0
   12.1675   43.3623    9.4756 C   0  0  0  0  0  0  0  0  0  0  0  0
   12.1807   42.5562   10.4374 O   0  0  0  0  0  0  0  0  0  0  0  0
   11.2762   43.1995    8.3695 N   0  0  0  0  0  0  0  0  0  0  0  0
  1  2  2  0
  2  3  1  0
  3  4  1  0
  4  5  1  0
  5  6  1  0
  6  7  1  0
  7  8  1  0
  8  9  1  0
  9 10  1  0
 10 11  1  0
 11 12  1  0
 12 13  1  0
 13 14  2  0
 14 15  1  0
 15 16  2  0
 16 17  1  0
 17 18  1  0
 18 19  2  0
 18 20  1  0
 17 21  2  0
  4 22  2  0
 22 23  1  0
 23 24  2  0
 23 25  1  0
 25  2  1  0
 21 13  1  0
M  CHG  3   6   1  11   1  20  -1
M  END
>  <shape_align_shape_tanimoto>  (1) 
0.64661270784841907

>  <shape_align_color_tanimoto>  (1) 
0.02711045226803822

>  <metric>  (1) 
shape

>  <metric_score>  (1) 
0.647

>  <template_pid>  (1) 
3FCL

>  <template_shape_score>  (1) 
0.647

>  <template_color_score>  (1) 
0.027

>  <template_combo_score>  (1) 
0.337

$$$$
3FCL_color_pose
     RDKit          3D

 25 26  0  0  0  0  0  0  0  0999 V2000
   15.4270   45.6549    9.7190 O   0  0  0  0  0  0  0  0  0  0  0  0
   14.1845   45.7332    9.9071 C   0  0  0  0  0  0  0  0  0  0  0  0
   13.4071   44.4771    9.7522 C   0  0  0  0  0  0  0  0  0  0  0  0
   11.9618   44.6400    9.9853 C   0  0  0  0  0  0  0  0  0  0  0  0
   11.1079   43.4241    9.8486 C   0  0  0  0  0  0  0  0  0  0  0  0
   11.5077   42.4148   10.7802 N   0  0  0  0  0  0  0  0  0  0  0  0
   11.4792   42.8532   12.1600 C   0  0  0  0  0  0  0  0  0  0  0  0
   10.0924   43.2361   12.6100 C   0  0  0  0  0  0  0  0  0  0  0  0
   10.0480   43.6993   14.0612 C   0  0  0  0  0  0  0  0  0  0  0  0
   10.5195   42.6355   15.0109 C   0  0  0  0  0  0  0  0  0  0  0  0
   10.5159   42.9723   16.3957 N   0  0  0  0  0  0  0  0  0  0  0  0
   11.7161   43.5140   16.9368 C   0  0  0  0  0  0  0  0  0  0  0  0
   12.4409   44.4651   16.1268 C   0  0  0  0  0  0  0  0  0  0  0  0
   12.1241   45.8240   16.2587 C   0  0  0  0  0  0  0  0  0  0  0  0
   12.7487   46.8024   15.5425 C   0  0  0  0  0  0  0  0  0  0  0  0
   13.7395   46.4853   14.6395 C   0  0  0  0  0  0  0  0  0  0  0  0
   14.0716   45.1534   14.4895 C   0  0  0  0  0  0  0  0  0  0  0  0
   15.1098   44.7688   13.5500 C   0  0  0  0  0  0  0  0  0  0  0  0
   15.3973   43.5331   13.4305 O   0  0  0  0  0  0  0  0  0  0  0  0
   15.7726   45.7417   12.7983 O   0  0  0  0  0  0  0  0  0  0  0  0
   13.4308   44.1705   15.2218 C   0  0  0  0  0  0  0  0  0  0  0  0
   11.3894   45.7516   10.2964 N   0  0  0  0  0  0  0  0  0  0  0  0
   12.1528   46.9396   10.4395 C   0  0  0  0  0  0  0  0  0  0  0  0
   11.6015   48.0330   10.7441 O   0  0  0  0  0  0  0  0  0  0  0  0
   13.5672   46.9705   10.2510 N   0  0  0  0  0  0  0  0  0  0  0  0
  1  2  2  0
  2  3  1  0
  3  4  1  0
  4  5  1  0
  5  6  1  0
  6  7  1  0
  7  8  1  0
  8  9  1  0
  9 10  1  0
 10 11  1  0
 11 12  1  0
 12 13  1  0
 13 14  2  0
 14 15  1  0
 15 16  2  0
 16 17  1  0
 17 18  1  0
 18 19  2  0
 18 20  1  0
 17 21  2  0
  4 22  2  0
 22 23  1  0
 23 24  2  0
 23 25  1  0
 25  2  1  0
 21 13  1  0
M  CHG  3   6   1  11   1  20  -1
M  END
>  <shape_align_shape_tanimoto>  (2) 
0.47801695741434957

>  <shape_align_color_tanimoto>  (2) 
0.072728428891723138

>  <metric>  (2) 
color

>  <metric_score>  (2) 
0.073

>  <template_pid>  (2) 
3FCL

>  <template_shape_score>  (2) 
0.478

>  <template_color_score>  (2) 
0.073

>  <template_combo_score>  (2) 
0.275

$$$$
3FCL_combo_pose
     RDKit          3D

 25 26  0  0  0  0  0  0  0  0999 V2000
   10.5582   44.0253    6.3597 O   0  0  0  0  0  0  0  0  0  0  0  0
   11.3444   44.1597    7.3461 C   0  0  0  0  0  0  0  0  0  0  0  0
   12.2728   45.3100    7.3518 C   0  0  0  0  0  0  0  0  0  0  0  0
   13.1068   45.3062    8.5694 C   0  0  0  0  0  0  0  0  0  0  0  0
   14.0998   46.4353    8.6936 C   0  0  0  0  0  0  0  0  0  0  0  0
   14.8509   46.3035    9.9406 N   0  0  0  0  0  0  0  0  0  0  0  0
   16.0664   45.5937    9.7884 C   0  0  0  0  0  0  0  0  0  0  0  0
   16.5244   44.7185   10.8829 C   0  0  0  0  0  0  0  0  0  0  0  0
   16.7863   45.3094   12.2102 C   0  0  0  0  0  0  0  0  0  0  0  0
   15.6757   45.9716   12.9302 C   0  0  0  0  0  0  0  0  0  0  0  0
   14.5664   45.0723   13.2150 N   0  0  0  0  0  0  0  0  0  0  0  0
   13.4351   45.8991   13.5940 C   0  0  0  0  0  0  0  0  0  0  0  0
   12.9445   45.3931   14.9038 C   0  0  0  0  0  0  0  0  0  0  0  0
   13.4438   45.8971   16.1055 C   0  0  0  0  0  0  0  0  0  0  0  0
   13.0073   45.4467   17.3312 C   0  0  0  0  0  0  0  0  0  0  0  0
   12.0427   44.4626   17.3988 C   0  0  0  0  0  0  0  0  0  0  0  0
   11.5339   43.9487   16.2239 C   0  0  0  0  0  0  0  0  0  0  0  0
   10.5124   42.9067   16.2601 C   0  0  0  0  0  0  0  0  0  0  0  0
   10.0687   42.4588   15.1602 O   0  0  0  0  0  0  0  0  0  0  0  0
   10.0511   42.4310   17.4854 O   0  0  0  0  0  0  0  0  0  0  0  0
   11.9784   44.4073   14.9999 C   0  0  0  0  0  0  0  0  0  0  0  0
   13.0684   44.4502    9.5142 N   0  0  0  0  0  0  0  0  0  0  0  0
   12.1675   43.3623    9.4756 C   0  0  0  0  0  0  0  0  0  0  0  0
   12.1807   42.5562   10.4374 O   0  0  0  0  0  0  0  0  0  0  0  0
   11.2762   43.1995    8.3695 N   0  0  0  0  0  0  0  0  0  0  0  0
  1  2  2  0
  2  3  1  0
  3  4  1  0
  4  5  1  0
  5  6  1  0
  6  7  1  0
  7  8  1  0
  8  9  1  0
  9 10  1  0
 10 11  1  0
 11 12  1  0
 12 13  1  0
 13 14  2  0
 14 15  1  0
 15 16  2  0
 16 17  1  0
 17 18  1  0
 18 19  2  0
 18 20  1  0
 17 21  2  0
  4 22  2  0
 22 23  1  0
 23 24  2  0
 23 25  1  0
 25  2  1  0
 21 13  1  0
M  CHG  3   6   1  11   1  20  -1
M  END
>  <shape_align_shape_tanimoto>  (3) 
0.64661270784841907

>  <shape_align_color_tanimoto>  (3) 
0.02711045226803822

>  <metric>  (3) 
combo

>  <metric_score>  (3) 
0.337

>  <template_pid>  (3) 
3FCL

>  <template_shape_score>  (3) 
0.647

>  <template_color_score>  (3) 
0.027

>  <template_combo_score>  (3) 
0.337

$$$$
