3DGA_shape_pose
     RDKit          3D

 18 18  0  0  0  0  0  0  0  0999 V2000
    2.3940    6.9519   15.3458 N   0  0  0  0  0  0  0  0  0  0  0  0
    2.0143    7.8706   16.3437 C   0  0  0  0  0  0  0  0  0  0  0  0
    2.4764    7.7550   17.5363 N   0  0  0  0  0  0  0  0  0  0  0  0
    1.0693    8.8730   15.9973 N   0  0  0  0  0  0  0  0  0  0  0  0
    0.6057    9.7742   16.9876 C   0  0  0  0  0  0  0  0  0  0  0  0
    0.2306    9.2661   18.1124 N   0  0  0  0  0  0  0  0  0  0  0  0
    0.4864   11.1792   16.7838 N   0  0  0  0  0  0  0  0  0  0  0  0
    0.8763   12.1533   17.7313 C   0  0  0  0  0  0  0  0  0  0  0  0
    1.5852   11.8981   18.8767 C   0  0  0  0  0  0  0  0  0  0  0  0
    1.9568   12.9070   19.7421 C   0  0  0  0  0  0  0  0  0  0  0  0
    2.7249   12.6029   20.9786 C   0  0  0  0  0  0  0  0  0  0  0  0
    3.6641   13.5687   21.2579 F   0  0  0  0  0  0  0  0  0  0  0  0
    1.7850   12.5574   22.0149 F   0  0  0  0  0  0  0  0  0  0  0  0
    3.2806   11.3443   20.9011 F   0  0  0  0  0  0  0  0  0  0  0  0
    1.6365   14.2274   19.5022 C   0  0  0  0  0  0  0  0  0  0  0  0
    0.9156   14.4822   18.3344 C   0  0  0  0  0  0  0  0  0  0  0  0
    0.5459   13.4637   17.4711 C   0  0  0  0  0  0  0  0  0  0  0  0
   -0.3596   13.9041   16.0320 Cl  0  0  0  0  0  0  0  0  0  0  0  0
  1  2  1  0
  2  3  2  0
  2  4  1  0
  4  5  1  0
  5  6  2  0
  5  7  1  0
  7  8  1  0
  8  9  2  0
  9 10  1  0
 10 11  1  0
 11 12  1  0
 11 13  1  0
 11 14  1  0
 10 15  2  0
 15 16  1  0
 16 17  2  0
 17 18  1  0
 17  8  1  0
M  CHG  2   3   1   6   1
M  END
>  <shape_align_shape_tanimoto>  (1) 
0.60074039304675197

>  <shape_align_color_tanimoto>  (1) 
0.083769759113428877

>  <metric>  (1) 
shape

>  <metric_score>  (1) 
0.601

>  <template_pid>  (1) 
3DGA

>  <template_shape_score>  (1) 
0.601

>  <template_color_score>  (1) 
0.084

>  <template_combo_score>  (1) 
0.342

$$$$
3DGA_color_pose
     RDKit          3D

 18 18  0  0  0  0  0  0  0  0999 V2000
   -0.4388    7.3668   14.7600 N   0  0  0  0  0  0  0  0  0  0  0  0
   -0.3668    8.6685   15.3822 C   0  0  0  0  0  0  0  0  0  0  0  0
   -1.2563    9.0986   16.1936 N   0  0  0  0  0  0  0  0  0  0  0  0
    0.7360    9.4729   14.9776 N   0  0  0  0  0  0  0  0  0  0  0  0
    0.8672   10.7822   15.4626 C   0  0  0  0  0  0  0  0  0  0  0  0
   -0.1917   11.5423   15.4086 N   0  0  0  0  0  0  0  0  0  0  0  0
    2.0826   11.3400   15.9506 N   0  0  0  0  0  0  0  0  0  0  0  0
    2.1854   12.1396   17.1107 C   0  0  0  0  0  0  0  0  0  0  0  0
    1.1852   12.3363   18.0252 C   0  0  0  0  0  0  0  0  0  0  0  0
    1.3615   13.1095   19.1578 C   0  0  0  0  0  0  0  0  0  0  0  0
    0.2432   13.2901   20.1152 C   0  0  0  0  0  0  0  0  0  0  0  0
    0.6348   14.1334   21.1235 F   0  0  0  0  0  0  0  0  0  0  0  0
   -0.8310   13.8457   19.4091 F   0  0  0  0  0  0  0  0  0  0  0  0
   -0.1363   12.0723   20.6376 F   0  0  0  0  0  0  0  0  0  0  0  0
    2.5939   13.7229   19.4035 C   0  0  0  0  0  0  0  0  0  0  0  0
    3.5980   13.5209   18.4799 C   0  0  0  0  0  0  0  0  0  0  0  0
    3.3977   12.7465   17.3589 C   0  0  0  0  0  0  0  0  0  0  0  0
    4.7232   12.5487   16.2500 Cl  0  0  0  0  0  0  0  0  0  0  0  0
  1  2  1  0
  2  3  2  0
  2  4  1  0
  4  5  1  0
  5  6  2  0
  5  7  1  0
  7  8  1  0
  8  9  2  0
  9 10  1  0
 10 11  1  0
 11 12  1  0
 11 13  1  0
 11 14  1  0
 10 15  2  0
 15 16  1  0
 16 17  2  0
 17 18  1  0
 17  8  1  0
M  CHG  2   3   1   6   1
M  END
>  <shape_align_shape_tanimoto>  (2) 
0.5925765460812239

>  <shape_align_color_tanimoto>  (2) 
0.096707129839741404

>  <metric>  (2) 
color

>  <metric_score>  (2) 
0.097

>  <template_pid>  (2) 
3DGA

>  <template_shape_score>  (2) 
0.593

>  <template_color_score>  (2) 
0.097

>  <template_combo_score>  (2) 
0.345

$$$$
3DGA_combo_pose
     RDKit          3D

 18 18  0  0  0  0  0  0  0  0999 V2000
   -0.4388    7.3668   14.7600 N   0  0  0  0  0  0  0  0  0  0  0  0
   -0.3668    8.6685   15.3822 C   0  0  0  0  0  0  0  0  0  0  0  0
   -1.2563    9.0986   16.1936 N   0  0  0  0  0  0  0  0  0  0  0  0
    0.7360    9.4729   14.9776 N   0  0  0  0  0  0  0  0  0  0  0  0
    0.8672   10.7822   15.4626 C   0  0  0  0  0  0  0  0  0  0  0  0
   -0.1917   11.5423   15.4086 N   0  0  0  0  0  0  0  0  0  0  0  0
    2.0826   11.3400   15.9506 N   0  0  0  0  0  0  0  0  0  0  0  0
    2.1854   12.1396   17.1107 C   0  0  0  0  0  0  0  0  0  0  0  0
    1.1852   12.3363   18.0252 C   0  0  0  0  0  0  0  0  0  0  0  0
    1.3615   13.1095   19.1578 C   0  0  0  0  0  0  0  0  0  0  0  0
    0.2432   13.2901   20.1152 C   0  0  0  0  0  0  0  0  0  0  0  0
    0.6348   14.1334   21.1235 F   0  0  0  0  0  0  0  0  0  0  0  0
   -0.8310   13.8457   19.4091 F   0  0  0  0  0  0  0  0  0  0  0  0
   -0.1363   12.0723   20.6376 F   0  0  0  0  0  0  0  0  0  0  0  0
    2.5939   13.7229   19.4035 C   0  0  0  0  0  0  0  0  0  0  0  0
    3.5980   13.5209   18.4799 C   0  0  0  0  0  0  0  0  0  0  0  0
    3.3977   12.7465   17.3589 C   0  0  0  0  0  0  0  0  0  0  0  0
    4.7232   12.5487   16.2500 Cl  0  0  0  0  0  0  0  0  0  0  0  0
  1  2  1  0
  2  3  2  0
  2  4  1  0
  4  5  1  0
  5  6  2  0
  5  7  1  0
  7  8  1  0
  8  9  2  0
  9 10  1  0
 10 11  1  0
 11 12  1  0
 11 13  1  0
 11 14  1  0
 10 15  2  0
 15 16  1  0
 16 17  2  0
 17 18  1  0
 17  8  1  0
M  CHG  2   3   1   6   1
M  END
>  <shape_align_shape_tanimoto>  (3) 
0.5925765460812239

>  <shape_align_color_tanimoto>  (3) 
0.096707129839741404

>  <metric>  (3) 
combo

>  <metric_score>  (3) 
0.345

>  <template_pid>  (3) 
3DGA

>  <template_shape_score>  (3) 
0.593

>  <template_color_score>  (3) 
0.097

>  <template_combo_score>  (3) 
0.345

$$$$
