1P06_shape_pose
     RDKit          3D

 28 29  0  0  0  0  0  0  0  0999 V2000
    6.3292    7.3617   13.5081 C   0  0  0  0  0  0  0  0  0  0  0  0
    5.0895    6.9755   14.3035 C   0  0  2  0  0  0  0  0  0  0  0  0
    4.2076    6.2854   13.3564 N   0  0  0  0  0  0  0  0  0  0  0  0
    4.3852    8.2150   14.7753 C   0  0  0  0  0  0  0  0  0  0  0  0
    3.2299    8.4657   14.3256 O   0  0  0  0  0  0  0  0  0  0  0  0
    5.0475    9.0584   15.7106 N   0  0  0  0  0  0  0  0  0  0  0  0
    4.3472   10.2489   16.1508 C   0  0  1  0  0  0  0  0  0  0  0  0
    4.1325   10.1331   17.6418 C   0  0  0  0  0  0  0  0  0  0  0  0
    5.1501   11.4546   15.7848 C   0  0  0  0  0  0  0  0  0  0  0  0
    6.2458   11.2124   15.1849 O   0  0  0  0  0  0  0  0  0  0  0  0
    4.7220   12.7796   16.0847 N   0  0  0  0  0  0  0  0  0  0  0  0
    3.4786   13.0654   16.7607 C   0  0  0  0  0  0  0  0  0  0  0  0
    3.3062   14.5561   16.4550 C   0  0  0  0  0  0  0  0  0  0  0  0
    4.7221   15.0790   16.3602 C   0  0  0  0  0  0  0  0  0  0  0  0
    5.4723   13.9533   15.7450 C   0  0  1  0  0  0  0  0  0  0  0  0
    6.8845   13.8735   16.2183 C   0  0  0  0  0  0  0  0  0  0  0  0
    7.3421   12.8962   16.8628 O   0  0  0  0  0  0  0  0  0  0  0  0
    7.7616   14.9425   15.9349 N   0  0  0  0  0  0  0  0  0  0  0  0
    9.1196   14.8874   16.3789 C   0  0  2  0  0  0  0  0  0  0  0  0
    9.4532   16.0493   17.4182 B   0  0  0  0  0  0  0  0  0  0  0  0
   10.6310   15.8583   18.2617 O   0  0  0  0  0  0  0  0  0  0  0  0
   10.1394   15.0195   15.2764 C   0  0  0  0  0  0  0  0  0  0  0  0
   10.0327   16.2850   14.5431 C   0  0  0  0  0  0  0  0  0  0  0  0
    9.2241   16.4293   13.4100 C   0  0  0  0  0  0  0  0  0  0  0  0
    9.1732   17.6546   12.7691 C   0  0  0  0  0  0  0  0  0  0  0  0
    9.9052   18.7379   13.2266 C   0  0  0  0  0  0  0  0  0  0  0  0
   10.7123   18.6089   14.3506 C   0  0  0  0  0  0  0  0  0  0  0  0
   10.7516   17.3805   14.9776 C   0  0  0  0  0  0  0  0  0  0  0  0
  2  1  1  6
  2  3  1  0
  2  4  1  0
  4  5  2  0
  4  6  1  0
  6  7  1  0
  7  8  1  1
  7  9  1  0
  9 10  2  0
  9 11  1  0
 11 12  1  0
 12 13  1  0
 13 14  1  0
 14 15  1  0
 15 16  1  1
 16 17  2  0
 16 18  1  0
 18 19  1  0
 19 20  1  1
 20 21  1  0
 19 22  1  0
 22 23  1  0
 23 24  2  0
 24 25  1  0
 25 26  2  0
 26 27  1  0
 27 28  2  0
 15 11  1  0
 28 23  1  0
M  CHG  1   3   1
M  END
>  <shape_align_shape_tanimoto>  (1) 
0.57860380120607147

>  <shape_align_color_tanimoto>  (1) 
0.037638931165604197

>  <metric>  (1) 
shape

>  <metric_score>  (1) 
0.579

>  <template_pid>  (1) 
1P06

>  <template_shape_score>  (1) 
0.579

>  <template_color_score>  (1) 
0.038

>  <template_combo_score>  (1) 
0.308

$$$$
1P06_color_pose
     RDKit          3D

 28 29  0  0  0  0  0  0  0  0999 V2000
    3.7689   18.6285   16.3889 C   0  0  0  0  0  0  0  0  0  0  0  0
    2.4901   18.1393   17.0320 C   0  0  2  0  0  0  0  0  0  0  0  0
    2.2846   18.9263   18.2346 N   0  0  0  0  0  0  0  0  0  0  0  0
    2.5797   16.7164   17.4503 C   0  0  0  0  0  0  0  0  0  0  0  0
    2.4773   16.4164   18.6692 O   0  0  0  0  0  0  0  0  0  0  0  0
    2.7813   15.7481   16.4245 N   0  0  0  0  0  0  0  0  0  0  0  0
    2.8855   14.3185   16.7120 C   0  0  1  0  0  0  0  0  0  0  0  0
    1.8218   13.5420   16.0024 C   0  0  0  0  0  0  0  0  0  0  0  0
    4.2732   13.9331   16.3240 C   0  0  0  0  0  0  0  0  0  0  0  0
    4.9553   14.8601   15.7947 O   0  0  0  0  0  0  0  0  0  0  0  0
    4.7260   12.6261   16.5559 N   0  0  0  0  0  0  0  0  0  0  0  0
    3.9277   11.5221   17.1652 C   0  0  0  0  0  0  0  0  0  0  0  0
    4.1538   10.4783   16.0662 C   0  0  0  0  0  0  0  0  0  0  0  0
    5.4264   10.8759   15.3303 C   0  0  0  0  0  0  0  0  0  0  0  0
    5.9734   11.9349   16.2866 C   0  0  1  0  0  0  0  0  0  0  0  0
    7.0699   12.7007   15.7527 C   0  0  0  0  0  0  0  0  0  0  0  0
    7.6835   12.2392   14.7251 O   0  0  0  0  0  0  0  0  0  0  0  0
    7.5684   13.9345   16.2439 N   0  0  0  0  0  0  0  0  0  0  0  0
    8.6765   14.6487   15.6387 C   0  0  2  0  0  0  0  0  0  0  0  0
    9.8214   14.6971   16.7596 B   0  0  0  0  0  0  0  0  0  0  0  0
    9.3937   15.2215   18.0740 O   0  0  0  0  0  0  0  0  0  0  0  0
    8.3074   16.0933   15.3255 C   0  0  0  0  0  0  0  0  0  0  0  0
    9.4820   16.7647   14.7100 C   0  0  0  0  0  0  0  0  0  0  0  0
   10.3850   17.3979   15.5384 C   0  0  0  0  0  0  0  0  0  0  0  0
   11.5102   18.0516   15.0644 C   0  0  0  0  0  0  0  0  0  0  0  0
   11.7245   18.0611   13.6934 C   0  0  0  0  0  0  0  0  0  0  0  0
   10.8250   17.4288   12.8505 C   0  0  0  0  0  0  0  0  0  0  0  0
    9.7003   16.7778   13.3507 C   0  0  0  0  0  0  0  0  0  0  0  0
  2  1  1  1
  2  3  1  0
  2  4  1  0
  4  5  2  0
  4  6  1  0
  6  7  1  0
  7  8  1  6
  7  9  1  0
  9 10  2  0
  9 11  1  0
 11 12  1  0
 12 13  1  0
 13 14  1  0
 14 15  1  0
 15 16  1  6
 16 17  2  0
 16 18  1  0
 18 19  1  0
 19 20  1  1
 20 21  1  0
 19 22  1  0
 22 23  1  0
 23 24  2  0
 24 25  1  0
 25 26  2  0
 26 27  1  0
 27 28  2  0
 15 11  1  0
 28 23  1  0
M  CHG  1   3   1
M  END
>  <shape_align_shape_tanimoto>  (2) 
0.57786245767769306

>  <shape_align_color_tanimoto>  (2) 
0.11765222467560146

>  <metric>  (2) 
color

>  <metric_score>  (2) 
0.118

>  <template_pid>  (2) 
1P06

>  <template_shape_score>  (2) 
0.578

>  <template_color_score>  (2) 
0.118

>  <template_combo_score>  (2) 
0.348

$$$$
1P06_combo_pose
     RDKit          3D

 28 29  0  0  0  0  0  0  0  0999 V2000
    3.7689   18.6285   16.3889 C   0  0  0  0  0  0  0  0  0  0  0  0
    2.4901   18.1393   17.0320 C   0  0  2  0  0  0  0  0  0  0  0  0
    2.2846   18.9263   18.2346 N   0  0  0  0  0  0  0  0  0  0  0  0
    2.5797   16.7164   17.4503 C   0  0  0  0  0  0  0  0  0  0  0  0
    2.4773   16.4164   18.6692 O   0  0  0  0  0  0  0  0  0  0  0  0
    2.7813   15.7481   16.4245 N   0  0  0  0  0  0  0  0  0  0  0  0
    2.8855   14.3185   16.7120 C   0  0  1  0  0  0  0  0  0  0  0  0
    1.8218   13.5420   16.0024 C   0  0  0  0  0  0  0  0  0  0  0  0
    4.2732   13.9331   16.3240 C   0  0  0  0  0  0  0  0  0  0  0  0
    4.9553   14.8601   15.7947 O   0  0  0  0  0  0  0  0  0  0  0  0
    4.7260   12.6261   16.5559 N   0  0  0  0  0  0  0  0  0  0  0  0
    3.9277   11.5221   17.1652 C   0  0  0  0  0  0  0  0  0  0  0  0
    4.1538   10.4783   16.0662 C   0  0  0  0  0  0  0  0  0  0  0  0
    5.4264   10.8759   15.3303 C   0  0  0  0  0  0  0  0  0  0  0  0
    5.9734   11.9349   16.2866 C   0  0  1  0  0  0  0  0  0  0  0  0
    7.0699   12.7007   15.7527 C   0  0  0  0  0  0  0  0  0  0  0  0
    7.6835   12.2392   14.7251 O   0  0  0  0  0  0  0  0  0  0  0  0
    7.5684   13.9345   16.2439 N   0  0  0  0  0  0  0  0  0  0  0  0
    8.6765   14.6487   15.6387 C   0  0  2  0  0  0  0  0  0  0  0  0
    9.8214   14.6971   16.7596 B   0  0  0  0  0  0  0  0  0  0  0  0
    9.3937   15.2215   18.0740 O   0  0  0  0  0  0  0  0  0  0  0  0
    8.3074   16.0933   15.3255 C   0  0  0  0  0  0  0  0  0  0  0  0
    9.4820   16.7647   14.7100 C   0  0  0  0  0  0  0  0  0  0  0  0
   10.3850   17.3979   15.5384 C   0  0  0  0  0  0  0  0  0  0  0  0
   11.5102   18.0516   15.0644 C   0  0  0  0  0  0  0  0  0  0  0  0
   11.7245   18.0611   13.6934 C   0  0  0  0  0  0  0  0  0  0  0  0
   10.8250   17.4288   12.8505 C   0  0  0  0  0  0  0  0  0  0  0  0
    9.7003   16.7778   13.3507 C   0  0  0  0  0  0  0  0  0  0  0  0
  2  1  1  1
  2  3  1  0
  2  4  1  0
  4  5  2  0
  4  6  1  0
  6  7  1  0
  7  8  1  6
  7  9  1  0
  9 10  2  0
  9 11  1  0
 11 12  1  0
 12 13  1  0
 13 14  1  0
 14 15  1  0
 15 16  1  6
 16 17  2  0
 16 18  1  0
 18 19  1  0
 19 20  1  1
 20 21  1  0
 19 22  1  0
 22 23  1  0
 23 24  2  0
 24 25  1  0
 25 26  2  0
 26 27  1  0
 27 28  2  0
 15 11  1  0
 28 23  1  0
M  CHG  1   3   1
M  END
>  <shape_align_shape_tanimoto>  (3) 
0.57786245767769306

>  <shape_align_color_tanimoto>  (3) 
0.11765222467560146

>  <metric>  (3) 
combo

>  <metric_score>  (3) 
0.348

>  <template_pid>  (3) 
1P06

>  <template_shape_score>  (3) 
0.578

>  <template_color_score>  (3) 
0.118

>  <template_combo_score>  (3) 
0.348

$$$$
