3VB6_shape_pose
     RDKit          3D

 29 28  0  0  0  0  0  0  0  0999 V2000
    4.5607    9.7735   -5.1909 C   0  0  0  0  0  0  0  0  0  0  0  0
    4.6561    9.5746   -3.6371 C   0  0  0  0  0  0  0  0  0  0  0  0
    6.0385   10.2358   -3.3229 C   0  0  0  0  0  0  0  0  0  0  0  0
    3.6198   10.4343   -3.0821 C   0  0  0  0  0  0  0  0  0  0  0  0
    3.3648   10.5585   -1.6157 C   0  0  2  0  0  0  0  0  0  0  0  0
    2.9044    9.5243   -0.8129 N   0  0  0  0  0  0  0  0  0  0  0  0
    3.0515    8.1342   -0.7382 C   0  0  0  0  0  0  0  0  0  0  0  0
    3.7303    7.4723   -1.5479 O   0  0  0  0  0  0  0  0  0  0  0  0
    2.3782    7.3657    0.3524 C   0  0  1  0  0  0  0  0  0  0  0  0
    2.5411    5.9415   -0.0095 N   0  0  0  0  0  0  0  0  0  0  0  0
    1.3637    5.1257   -0.0625 C   0  0  0  0  0  0  0  0  0  0  0  0
    0.2250    5.6343    0.1996 O   0  0  0  0  0  0  0  0  0  0  0  0
    1.5058    3.6797   -0.4281 C   0  0  2  0  0  0  0  0  0  0  0  0
    2.1364    3.6652   -1.8286 C   0  0  0  0  0  0  0  0  0  0  0  0
    0.2105    3.0287   -0.4467 N   0  0  0  0  0  0  0  0  0  0  0  0
    3.0469    7.4878    1.6919 C   0  0  0  0  0  0  0  0  0  0  0  0
    3.1502    8.8722    2.2490 C   0  0  0  0  0  0  0  0  0  0  0  0
    4.3877    6.7886    1.7433 C   0  0  0  0  0  0  0  0  0  0  0  0
    2.6594   11.8444   -1.4419 C   0  0  0  0  0  0  0  0  0  0  0  0
    3.1340   12.8320   -2.0835 O   0  0  0  0  0  0  0  0  0  0  0  0
    1.5239   12.0871   -0.6537 N   0  0  0  0  0  0  0  0  0  0  0  0
    0.8592   13.3891   -0.5395 C   0  0  2  0  0  0  0  0  0  0  0  0
    0.9298   13.9511    0.8157 C   0  0  0  0  0  0  0  0  0  0  0  0
    0.6819   15.2184    0.9549 N   0  0  0  0  0  0  0  0  0  0  0  0
   -0.5116   13.3337   -1.1235 C   0  0  0  0  0  0  0  0  0  0  0  0
   -1.3665   12.2952   -0.4333 C   0  0  0  0  0  0  0  0  0  0  0  0
   -2.6949   12.2931   -1.0858 C   0  0  0  0  0  0  0  0  0  0  0  0
   -3.6768   11.3534   -0.6315 N   0  0  0  0  0  0  0  0  0  0  0  0
   -3.0183   13.0750   -2.0282 O   0  0  0  0  0  0  0  0  0  0  0  0
  1  2  1  0
  2  3  1  0
  2  4  1  0
  5  4  1  6
  5  6  1  0
  6  7  1  0
  7  8  2  0
  7  9  1  0
  9 10  1  6
 10 11  1  0
 11 12  2  0
 11 13  1  0
 13 14  1  6
 13 15  1  0
  9 16  1  0
 16 17  1  0
 16 18  1  0
  5 19  1  0
 19 20  2  0
 19 21  1  0
 21 22  1  0
 22 23  1  0
 23 24  2  0
 22 25  1  1
 25 26  1  0
 26 27  1  0
 27 28  1  0
 27 29  2  0
M  CHG  1  15   1
M  END
>  <shape_align_shape_tanimoto>  (1) 
0.29780676956997704

>  <shape_align_color_tanimoto>  (1) 
0.028889655469753122

>  <metric>  (1) 
shape

>  <metric_score>  (1) 
0.298

>  <template_pid>  (1) 
3VB6

>  <template_shape_score>  (1) 
0.298

>  <template_color_score>  (1) 
0.029

>  <template_combo_score>  (1) 
0.163

$$$$
3VB6_color_pose
     RDKit          3D

 29 28  0  0  0  0  0  0  0  0999 V2000
    4.3959    6.2423   -6.4400 C   0  0  0  0  0  0  0  0  0  0  0  0
    3.0003    6.6061   -6.0168 C   0  0  0  0  0  0  0  0  0  0  0  0
    2.4192    5.3072   -5.4097 C   0  0  0  0  0  0  0  0  0  0  0  0
    2.9611    7.6083   -4.9227 C   0  0  0  0  0  0  0  0  0  0  0  0
    3.5982    8.9320   -5.1847 C   0  0  2  0  0  0  0  0  0  0  0  0
    3.4109    9.7126   -3.9421 N   0  0  0  0  0  0  0  0  0  0  0  0
    4.5372   10.1445   -3.1887 C   0  0  0  0  0  0  0  0  0  0  0  0
    5.6814    9.8455   -3.6069 O   0  0  0  0  0  0  0  0  0  0  0  0
    4.3907   10.9392   -1.9217 C   0  0  1  0  0  0  0  0  0  0  0  0
    2.9687   11.1239   -1.7014 N   0  0  0  0  0  0  0  0  0  0  0  0
    2.3770   12.4244   -1.5980 C   0  0  0  0  0  0  0  0  0  0  0  0
    3.0523   13.4850   -1.6918 O   0  0  0  0  0  0  0  0  0  0  0  0
    0.8994   12.4645   -1.3705 C   0  0  2  0  0  0  0  0  0  0  0  0
    0.1226   11.8218   -2.4957 C   0  0  0  0  0  0  0  0  0  0  0  0
    0.4969   13.8537   -1.2990 N   0  0  0  0  0  0  0  0  0  0  0  0
    4.9531   10.0820   -0.8084 C   0  0  0  0  0  0  0  0  0  0  0  0
    4.2352    8.7808   -0.6637 C   0  0  0  0  0  0  0  0  0  0  0  0
    6.4106    9.7836   -1.1059 C   0  0  0  0  0  0  0  0  0  0  0  0
    2.9593    9.7374   -6.2445 C   0  0  0  0  0  0  0  0  0  0  0  0
    2.3480   10.7963   -5.8782 O   0  0  0  0  0  0  0  0  0  0  0  0
    2.9628    9.4487   -7.6154 N   0  0  0  0  0  0  0  0  0  0  0  0
    2.2820   10.3384   -8.5616 C   0  0  2  0  0  0  0  0  0  0  0  0
    1.2266    9.5553   -9.3083 C   0  0  0  0  0  0  0  0  0  0  0  0
    1.4599    8.4069   -9.8049 N   0  0  0  0  0  0  0  0  0  0  0  0
    3.2756   10.7787   -9.5933 C   0  0  0  0  0  0  0  0  0  0  0  0
    4.4207   11.5061   -8.9734 C   0  0  0  0  0  0  0  0  0  0  0  0
    3.9730   12.7234   -8.2878 C   0  0  0  0  0  0  0  0  0  0  0  0
    4.9780   13.4441   -7.5364 N   0  0  0  0  0  0  0  0  0  0  0  0
    2.8357   13.2061   -8.2785 O   0  0  0  0  0  0  0  0  0  0  0  0
  1  2  1  0
  2  3  1  0
  2  4  1  0
  5  4  1  1
  5  6  1  0
  6  7  1  0
  7  8  2  0
  7  9  1  0
  9 10  1  1
 10 11  1  0
 11 12  2  0
 11 13  1  0
 13 14  1  6
 13 15  1  0
  9 16  1  0
 16 17  1  0
 16 18  1  0
  5 19  1  0
 19 20  2  0
 19 21  1  0
 21 22  1  0
 22 23  1  0
 23 24  2  0
 22 25  1  6
 25 26  1  0
 26 27  1  0
 27 28  1  0
 27 29  2  0
M  CHG  1  15   1
M  END
>  <shape_align_shape_tanimoto>  (2) 
0.2003466236061445

>  <shape_align_color_tanimoto>  (2) 
0.049606411611026191

>  <metric>  (2) 
color

>  <metric_score>  (2) 
0.050

>  <template_pid>  (2) 
3VB6

>  <template_shape_score>  (2) 
0.200

>  <template_color_score>  (2) 
0.050

>  <template_combo_score>  (2) 
0.125

$$$$
3VB6_combo_pose
     RDKit          3D

 29 28  0  0  0  0  0  0  0  0999 V2000
    4.5607    9.7735   -5.1909 C   0  0  0  0  0  0  0  0  0  0  0  0
    4.6561    9.5746   -3.6371 C   0  0  0  0  0  0  0  0  0  0  0  0
    6.0385   10.2358   -3.3229 C   0  0  0  0  0  0  0  0  0  0  0  0
    3.6198   10.4343   -3.0821 C   0  0  0  0  0  0  0  0  0  0  0  0
    3.3648   10.5585   -1.6157 C   0  0  2  0  0  0  0  0  0  0  0  0
    2.9044    9.5243   -0.8129 N   0  0  0  0  0  0  0  0  0  0  0  0
    3.0515    8.1342   -0.7382 C   0  0  0  0  0  0  0  0  0  0  0  0
    3.7303    7.4723   -1.5479 O   0  0  0  0  0  0  0  0  0  0  0  0
    2.3782    7.3657    0.3524 C   0  0  1  0  0  0  0  0  0  0  0  0
    2.5411    5.9415   -0.0095 N   0  0  0  0  0  0  0  0  0  0  0  0
    1.3637    5.1257   -0.0625 C   0  0  0  0  0  0  0  0  0  0  0  0
    0.2250    5.6343    0.1996 O   0  0  0  0  0  0  0  0  0  0  0  0
    1.5058    3.6797   -0.4281 C   0  0  2  0  0  0  0  0  0  0  0  0
    2.1364    3.6652   -1.8286 C   0  0  0  0  0  0  0  0  0  0  0  0
    0.2105    3.0287   -0.4467 N   0  0  0  0  0  0  0  0  0  0  0  0
    3.0469    7.4878    1.6919 C   0  0  0  0  0  0  0  0  0  0  0  0
    3.1502    8.8722    2.2490 C   0  0  0  0  0  0  0  0  0  0  0  0
    4.3877    6.7886    1.7433 C   0  0  0  0  0  0  0  0  0  0  0  0
    2.6594   11.8444   -1.4419 C   0  0  0  0  0  0  0  0  0  0  0  0
    3.1340   12.8320   -2.0835 O   0  0  0  0  0  0  0  0  0  0  0  0
    1.5239   12.0871   -0.6537 N   0  0  0  0  0  0  0  0  0  0  0  0
    0.8592   13.3891   -0.5395 C   0  0  2  0  0  0  0  0  0  0  0  0
    0.9298   13.9511    0.8157 C   0  0  0  0  0  0  0  0  0  0  0  0
    0.6819   15.2184    0.9549 N   0  0  0  0  0  0  0  0  0  0  0  0
   -0.5116   13.3337   -1.1235 C   0  0  0  0  0  0  0  0  0  0  0  0
   -1.3665   12.2952   -0.4333 C   0  0  0  0  0  0  0  0  0  0  0  0
   -2.6949   12.2931   -1.0858 C   0  0  0  0  0  0  0  0  0  0  0  0
   -3.6768   11.3534   -0.6315 N   0  0  0  0  0  0  0  0  0  0  0  0
   -3.0183   13.0750   -2.0282 O   0  0  0  0  0  0  0  0  0  0  0  0
  1  2  1  0
  2  3  1  0
  2  4  1  0
  5  4  1  6
  5  6  1  0
  6  7  1  0
  7  8  2  0
  7  9  1  0
  9 10  1  6
 10 11  1  0
 11 12  2  0
 11 13  1  0
 13 14  1  6
 13 15  1  0
  9 16  1  0
 16 17  1  0
 16 18  1  0
  5 19  1  0
 19 20  2  0
 19 21  1  0
 21 22  1  0
 22 23  1  0
 23 24  2  0
 22 25  1  1
 25 26  1  0
 26 27  1  0
 27 28  1  0
 27 29  2  0
M  CHG  1  15   1
M  END
>  <shape_align_shape_tanimoto>  (3) 
0.29780676956997704

>  <shape_align_color_tanimoto>  (3) 
0.028889655469753122

>  <metric>  (3) 
combo

>  <metric_score>  (3) 
0.163

>  <template_pid>  (3) 
3VB6

>  <template_shape_score>  (3) 
0.298

>  <template_color_score>  (3) 
0.029

>  <template_combo_score>  (3) 
0.163

$$$$
