4M5K_shape_pose
     RDKit          3D

 22 24  0  0  0  0  0  0  0  0999 V2000
  -26.6246   -3.8098  -11.9317 C   0  0  0  0  0  0  0  0  0  0  0  0
  -26.2235   -4.4962  -10.6663 C   0  0  0  0  0  0  0  0  0  0  0  0
  -26.5951   -5.8192  -10.5446 C   0  0  0  0  0  0  0  0  0  0  0  0
  -26.2564   -6.5100   -9.4021 C   0  0  0  0  0  0  0  0  0  0  0  0
  -25.5503   -5.8506   -8.4071 C   0  0  0  0  0  0  0  0  0  0  0  0
  -25.1736   -4.5224   -8.5215 C   0  0  0  0  0  0  0  0  0  0  0  0
  -24.4316   -3.8160   -7.4870 C   0  0  0  0  0  0  0  0  0  0  0  0
  -24.1059   -2.6003   -7.6399 O   0  0  0  0  0  0  0  0  0  0  0  0
  -24.0131   -4.4567   -6.2080 C   0  0  0  0  0  0  0  0  0  0  0  0
  -25.3191   -4.1529   -4.9909 S   0  0  0  0  0  0  0  0  0  0  0  0
  -26.8028   -5.0074   -5.4912 C   0  0  0  0  0  0  0  0  0  0  0  0
  -27.7421   -4.4160   -6.2795 N   0  0  0  0  0  0  0  0  0  0  0  0
  -28.7512   -5.2749   -6.4996 C   0  0  0  0  0  0  0  0  0  0  0  0
  -29.8843   -5.1546   -7.2009 N   0  0  0  0  0  0  0  0  0  0  0  0
  -30.7418   -6.2061   -7.2520 C   0  0  0  0  0  0  0  0  0  0  0  0
  -31.9397   -6.0637   -7.9989 N   0  0  0  0  0  0  0  0  0  0  0  0
  -30.4362   -7.3427   -6.5995 N   0  0  0  0  0  0  0  0  0  0  0  0
  -29.3017   -7.4978   -5.8829 C   0  0  0  0  0  0  0  0  0  0  0  0
  -29.0247   -8.5623   -5.2771 O   0  0  0  0  0  0  0  0  0  0  0  0
  -28.4007   -6.4318   -5.8128 C   0  0  0  0  0  0  0  0  0  0  0  0
  -27.2146   -6.2537   -5.2054 N   0  0  0  0  0  0  0  0  0  0  0  0
  -25.5224   -3.8638   -9.6637 C   0  0  0  0  0  0  0  0  0  0  0  0
  1  2  1  0
  2  3  2  0
  3  4  1  0
  4  5  2  0
  5  6  1  0
  6  7  1  0
  7  8  2  0
  7  9  1  0
  9 10  1  0
 10 11  1  0
 11 12  2  0
 12 13  1  0
 13 14  1  0
 14 15  2  0
 15 16  1  0
 15 17  1  0
 17 18  1  0
 18 19  2  0
 18 20  1  0
 20 21  1  0
  6 22  2  0
 22  2  1  0
 21 11  1  0
 20 13  2  0
M  END
>  <shape_align_shape_tanimoto>  (1) 
0.6712404914058625

>  <shape_align_color_tanimoto>  (1) 
0.063826292081818448

>  <metric>  (1) 
shape

>  <metric_score>  (1) 
0.671

>  <template_pid>  (1) 
4M5K

>  <template_shape_score>  (1) 
0.671

>  <template_color_score>  (1) 
0.064

>  <template_combo_score>  (1) 
0.368

$$$$
4M5K_color_pose
     RDKit          3D

 22 24  0  0  0  0  0  0  0  0999 V2000
  -29.7023   -6.0556  -11.4922 C   0  0  0  0  0  0  0  0  0  0  0  0
  -28.6393   -5.2538  -10.8237 C   0  0  0  0  0  0  0  0  0  0  0  0
  -27.3268   -5.6381  -11.1179 C   0  0  0  0  0  0  0  0  0  0  0  0
  -26.2962   -4.9398  -10.5350 C   0  0  0  0  0  0  0  0  0  0  0  0
  -26.6032   -3.8913   -9.6849 C   0  0  0  0  0  0  0  0  0  0  0  0
  -27.8892   -3.5074   -9.3900 C   0  0  0  0  0  0  0  0  0  0  0  0
  -28.1959   -2.3993   -8.4939 C   0  0  0  0  0  0  0  0  0  0  0  0
  -29.4038   -2.0808   -8.2605 O   0  0  0  0  0  0  0  0  0  0  0  0
  -27.1335   -1.6140   -7.8321 C   0  0  0  0  0  0  0  0  0  0  0  0
  -26.7288   -2.2426   -6.1871 S   0  0  0  0  0  0  0  0  0  0  0  0
  -25.9928   -3.8677   -6.2342 C   0  0  0  0  0  0  0  0  0  0  0  0
  -26.6539   -5.0566   -6.1652 N   0  0  0  0  0  0  0  0  0  0  0  0
  -25.7693   -6.0805   -6.2263 C   0  0  0  0  0  0  0  0  0  0  0  0
  -25.9003   -7.4302   -6.2002 N   0  0  0  0  0  0  0  0  0  0  0  0
  -24.8050   -8.2117   -6.2826 C   0  0  0  0  0  0  0  0  0  0  0  0
  -24.9136   -9.6301   -6.2571 N   0  0  0  0  0  0  0  0  0  0  0  0
  -23.5606   -7.6712   -6.3923 N   0  0  0  0  0  0  0  0  0  0  0  0
  -23.3917   -6.3238   -6.4219 C   0  0  0  0  0  0  0  0  0  0  0  0
  -22.2329   -5.8255   -6.5253 O   0  0  0  0  0  0  0  0  0  0  0  0
  -24.5074   -5.4860   -6.3383 C   0  0  0  0  0  0  0  0  0  0  0  0
  -24.6729   -4.1494   -6.3404 N   0  0  0  0  0  0  0  0  0  0  0  0
  -28.9223   -4.2143   -9.9805 C   0  0  0  0  0  0  0  0  0  0  0  0
  1  2  1  0
  2  3  2  0
  3  4  1  0
  4  5  2  0
  5  6  1  0
  6  7  1  0
  7  8  2  0
  7  9  1  0
  9 10  1  0
 10 11  1  0
 11 12  2  0
 12 13  1  0
 13 14  1  0
 14 15  2  0
 15 16  1  0
 15 17  1  0
 17 18  1  0
 18 19  2  0
 18 20  1  0
 20 21  1  0
  6 22  2  0
 22  2  1  0
 21 11  1  0
 20 13  2  0
M  END
>  <shape_align_shape_tanimoto>  (2) 
0.5618475782777953

>  <shape_align_color_tanimoto>  (2) 
0.12916537673385589

>  <metric>  (2) 
color

>  <metric_score>  (2) 
0.129

>  <template_pid>  (2) 
4M5K

>  <template_shape_score>  (2) 
0.562

>  <template_color_score>  (2) 
0.129

>  <template_combo_score>  (2) 
0.346

$$$$
4M5K_combo_pose
     RDKit          3D

 22 24  0  0  0  0  0  0  0  0999 V2000
  -21.9281   -6.4420   -3.5896 C   0  0  0  0  0  0  0  0  0  0  0  0
  -22.4630   -5.5751   -4.6657 C   0  0  0  0  0  0  0  0  0  0  0  0
  -21.8772   -5.6329   -5.9237 C   0  0  0  0  0  0  0  0  0  0  0  0
  -22.3974   -4.8065   -6.9129 C   0  0  0  0  0  0  0  0  0  0  0  0
  -23.4640   -3.9661   -6.6213 C   0  0  0  0  0  0  0  0  0  0  0  0
  -24.0544   -3.8950   -5.3908 C   0  0  0  0  0  0  0  0  0  0  0  0
  -25.1637   -3.0574   -5.0058 C   0  0  0  0  0  0  0  0  0  0  0  0
  -25.6509   -3.0416   -3.8388 O   0  0  0  0  0  0  0  0  0  0  0  0
  -25.8476   -2.1130   -5.9693 C   0  0  0  0  0  0  0  0  0  0  0  0
  -27.6305   -2.4551   -5.9880 S   0  0  0  0  0  0  0  0  0  0  0  0
  -27.9609   -4.0291   -6.7738 C   0  0  0  0  0  0  0  0  0  0  0  0
  -29.1595   -4.6573   -6.8435 N   0  0  0  0  0  0  0  0  0  0  0  0
  -29.0512   -5.8254   -7.4848 C   0  0  0  0  0  0  0  0  0  0  0  0
  -29.8545   -6.8440   -7.8456 N   0  0  0  0  0  0  0  0  0  0  0  0
  -29.3728   -7.9186   -8.5172 C   0  0  0  0  0  0  0  0  0  0  0  0
  -30.1909   -9.0091   -8.9138 N   0  0  0  0  0  0  0  0  0  0  0  0
  -28.0543   -8.0156   -8.8572 N   0  0  0  0  0  0  0  0  0  0  0  0
  -27.2034   -7.0228   -8.5214 C   0  0  0  0  0  0  0  0  0  0  0  0
  -25.9712   -7.1156   -8.8404 O   0  0  0  0  0  0  0  0  0  0  0  0
  -27.6995   -5.9365   -7.8402 C   0  0  0  0  0  0  0  0  0  0  0  0
  -27.0643   -4.8342   -7.3976 N   0  0  0  0  0  0  0  0  0  0  0  0
  -23.5261   -4.7294   -4.3962 C   0  0  0  0  0  0  0  0  0  0  0  0
  1  2  1  0
  2  3  2  0
  3  4  1  0
  4  5  2  0
  5  6  1  0
  6  7  1  0
  7  8  2  0
  7  9  1  0
  9 10  1  0
 10 11  1  0
 11 12  2  0
 12 13  1  0
 13 14  1  0
 14 15  2  0
 15 16  1  0
 15 17  1  0
 17 18  1  0
 18 19  2  0
 18 20  1  0
 20 21  1  0
  6 22  2  0
 22  2  1  0
 21 11  1  0
 20 13  2  0
M  END
>  <shape_align_shape_tanimoto>  (3) 
0.62665734222551328

>  <shape_align_color_tanimoto>  (3) 
0.12087548882093405

>  <metric>  (3) 
combo

>  <metric_score>  (3) 
0.374

>  <template_pid>  (3) 
4M5K

>  <template_shape_score>  (3) 
0.627

>  <template_color_score>  (3) 
0.121

>  <template_combo_score>  (3) 
0.374

$$$$
