3VGC_shape_pose
     RDKit          3D

 19 20  0  0  0  0  0  0  0  0999 V2000
   40.8333   -3.5777   22.0214 C   0  0  0  0  0  0  0  0  0  0  0  0
   42.2705   -3.3352   22.3832 C   0  0  0  0  0  0  0  0  0  0  0  0
   42.9522   -2.6968   21.5673 O   0  0  0  0  0  0  0  0  0  0  0  0
   42.7974   -3.8321   23.6216 N   0  0  0  0  0  0  0  0  0  0  0  0
   44.1706   -3.5880   23.9456 C   0  0  1  0  0  0  0  0  0  0  0  0
   44.4505   -2.7725   25.1431 C   0  0  0  0  0  0  0  0  0  0  0  0
   43.9740   -3.2609   26.4237 C   0  0  0  0  0  0  0  0  0  0  0  0
   43.5112   -4.5453   26.6749 C   0  0  0  0  0  0  0  0  0  0  0  0
   43.0716   -4.9539   27.9161 C   0  0  0  0  0  0  0  0  0  0  0  0
   43.0687   -4.1033   28.9796 C   0  0  0  0  0  0  0  0  0  0  0  0
   43.5252   -2.8124   28.7629 C   0  0  0  0  0  0  0  0  0  0  0  0
   43.5132   -1.9700   29.8545 C   0  0  0  0  0  0  0  0  0  0  0  0
   43.9456   -0.6680   29.7494 C   0  0  0  0  0  0  0  0  0  0  0  0
   44.3903   -0.2337   28.5201 C   0  0  0  0  0  0  0  0  0  0  0  0
   44.3982   -1.0896   27.4281 C   0  0  0  0  0  0  0  0  0  0  0  0
   43.9699   -2.3993   27.5067 C   0  0  0  0  0  0  0  0  0  0  0  0
   45.0709   -4.8933   23.9635 B   0  0  0  0  0  0  0  0  0  0  0  0
   46.0927   -5.1491   24.9776 O   0  0  0  0  0  0  0  0  0  0  0  0
   45.1722   -5.7464   22.7585 O   0  0  0  0  0  0  0  0  0  0  0  0
  1  2  1  0
  2  3  2  0
  2  4  1  0
  4  5  1  0
  5  6  1  1
  6  7  1  0
  7  8  2  0
  8  9  1  0
  9 10  2  0
 10 11  1  0
 11 12  2  0
 12 13  1  0
 13 14  2  0
 14 15  1  0
 15 16  2  0
  5 17  1  0
 17 18  1  0
 17 19  1  0
 16  7  1  0
 16 11  1  0
M  END
>  <shape_align_shape_tanimoto>  (1) 
0.61922641489839225

>  <shape_align_color_tanimoto>  (1) 
0.041835051105618297

>  <metric>  (1) 
shape

>  <metric_score>  (1) 
0.619

>  <template_pid>  (1) 
3VGC

>  <template_shape_score>  (1) 
0.619

>  <template_color_score>  (1) 
0.042

>  <template_combo_score>  (1) 
0.331

$$$$
3VGC_color_pose
     RDKit          3D

 19 20  0  0  0  0  0  0  0  0999 V2000
   41.1694    0.3732   24.7881 C   0  0  0  0  0  0  0  0  0  0  0  0
   41.6329    0.4242   26.1962 C   0  0  0  0  0  0  0  0  0  0  0  0
   40.7994    0.2235   27.1341 O   0  0  0  0  0  0  0  0  0  0  0  0
   43.0066    0.6973   26.4710 N   0  0  0  0  0  0  0  0  0  0  0  0
   43.5776    0.7720   27.7534 C   0  0  1  0  0  0  0  0  0  0  0  0
   44.5689   -0.2455   28.1882 C   0  0  0  0  0  0  0  0  0  0  0  0
   44.1218   -1.6322   28.2119 C   0  0  0  0  0  0  0  0  0  0  0  0
   43.6342   -2.1470   29.4181 C   0  0  0  0  0  0  0  0  0  0  0  0
   43.1400   -3.4299   29.5220 C   0  0  0  0  0  0  0  0  0  0  0  0
   43.1047   -4.2704   28.4295 C   0  0  0  0  0  0  0  0  0  0  0  0
   43.5823   -3.7843   27.2273 C   0  0  0  0  0  0  0  0  0  0  0  0
   43.5594   -4.6342   26.1393 C   0  0  0  0  0  0  0  0  0  0  0  0
   44.0484   -4.1664   24.9359 C   0  0  0  0  0  0  0  0  0  0  0  0
   44.5486   -2.8782   24.8260 C   0  0  0  0  0  0  0  0  0  0  0  0
   44.5579   -2.0606   25.9203 C   0  0  0  0  0  0  0  0  0  0  0  0
   44.0780   -2.4898   27.1361 C   0  0  0  0  0  0  0  0  0  0  0  0
   44.1129    2.2364   28.1304 B   0  0  0  0  0  0  0  0  0  0  0  0
   43.6706    3.3236   27.2374 O   0  0  0  0  0  0  0  0  0  0  0  0
   45.4705    2.4140   28.6611 O   0  0  0  0  0  0  0  0  0  0  0  0
  1  2  1  0
  2  3  2  0
  2  4  1  0
  4  5  1  0
  5  6  1  6
  6  7  1  0
  7  8  2  0
  8  9  1  0
  9 10  2  0
 10 11  1  0
 11 12  2  0
 12 13  1  0
 13 14  2  0
 14 15  1  0
 15 16  2  0
  5 17  1  0
 17 18  1  0
 17 19  1  0
 16  7  1  0
 16 11  1  0
M  END
>  <shape_align_shape_tanimoto>  (2) 
0.58510094231253884

>  <shape_align_color_tanimoto>  (2) 
0.13762792029411253

>  <metric>  (2) 
color

>  <metric_score>  (2) 
0.138

>  <template_pid>  (2) 
3VGC

>  <template_shape_score>  (2) 
0.585

>  <template_color_score>  (2) 
0.138

>  <template_combo_score>  (2) 
0.361

$$$$
3VGC_combo_pose
     RDKit          3D

 19 20  0  0  0  0  0  0  0  0999 V2000
   45.0416    4.1128   26.5809 C   0  0  0  0  0  0  0  0  0  0  0  0
   44.4229    2.7631   26.4998 C   0  0  0  0  0  0  0  0  0  0  0  0
   44.0781    2.3376   25.3827 O   0  0  0  0  0  0  0  0  0  0  0  0
   44.2558    2.0254   27.7055 N   0  0  0  0  0  0  0  0  0  0  0  0
   43.6458    0.6848   27.6664 C   0  0  1  0  0  0  0  0  0  0  0  0
   44.6297   -0.3377   28.2341 C   0  0  0  0  0  0  0  0  0  0  0  0
   44.1319   -1.6931   28.2461 C   0  0  0  0  0  0  0  0  0  0  0  0
   43.6304   -2.2598   29.4260 C   0  0  0  0  0  0  0  0  0  0  0  0
   43.1350   -3.5472   29.4633 C   0  0  0  0  0  0  0  0  0  0  0  0
   43.1093   -4.3352   28.3484 C   0  0  0  0  0  0  0  0  0  0  0  0
   43.5946   -3.8074   27.1733 C   0  0  0  0  0  0  0  0  0  0  0  0
   43.5731   -4.6039   26.0545 C   0  0  0  0  0  0  0  0  0  0  0  0
   44.0467   -4.1521   24.8378 C   0  0  0  0  0  0  0  0  0  0  0  0
   44.5440   -2.8597   24.8014 C   0  0  0  0  0  0  0  0  0  0  0  0
   44.5644   -2.0575   25.9354 C   0  0  0  0  0  0  0  0  0  0  0  0
   44.0918   -2.5188   27.1300 C   0  0  0  0  0  0  0  0  0  0  0  0
   42.2990    0.7270   28.5260 B   0  0  0  0  0  0  0  0  0  0  0  0
   42.3358    1.0573   29.9617 O   0  0  0  0  0  0  0  0  0  0  0  0
   41.0772    0.0978   27.9871 O   0  0  0  0  0  0  0  0  0  0  0  0
  1  2  1  0
  2  3  2  0
  2  4  1  0
  4  5  1  0
  5  6  1  1
  6  7  1  0
  7  8  2  0
  8  9  1  0
  9 10  2  0
 10 11  1  0
 11 12  2  0
 12 13  1  0
 13 14  2  0
 14 15  1  0
 15 16  2  0
  5 17  1  0
 17 18  1  0
 17 19  1  0
 16  7  1  0
 16 11  1  0
M  END
>  <shape_align_shape_tanimoto>  (3) 
0.59043583409834166

>  <shape_align_color_tanimoto>  (3) 
0.13549685613937154

>  <metric>  (3) 
combo

>  <metric_score>  (3) 
0.363

>  <template_pid>  (3) 
3VGC

>  <template_shape_score>  (3) 
0.590

>  <template_color_score>  (3) 
0.135

>  <template_combo_score>  (3) 
0.363

$$$$
