1EBW_shape_pose
     RDKit          3D

 46 47  0  0  0  0  0  0  0  0999 V2000
   72.8906   51.7352   11.5831 C   0  0  0  0  0  0  0  0  0  0  0  0
   72.7741   51.5024   13.0427 C   0  0  0  0  0  0  0  0  0  0  0  0
   73.8146   52.1716   13.9063 C   0  0  2  0  0  0  0  0  0  0  0  0
   73.4399   51.7464   15.3391 C   0  0  0  0  0  0  0  0  0  0  0  0
   73.7271   53.6577   13.9057 C   0  0  2  0  0  0  0  0  0  0  0  0
   72.4379   54.1106   14.3925 N   0  0  0  0  0  0  0  0  0  0  0  0
   72.4201   55.0816   15.4511 C   0  0  0  0  0  0  0  0  0  0  0  0
   73.5085   55.5311   15.9486 O   0  0  0  0  0  0  0  0  0  0  0  0
   71.1615   55.6194   16.0225 C   0  0  2  0  0  0  0  0  0  0  0  0
   70.1369   54.8723   15.4260 O   0  0  0  0  0  0  0  0  0  0  0  0
   69.3004   54.2460   16.3130 C   0  0  0  0  0  0  0  0  0  0  0  0
   68.2529   53.5032   15.5128 C   0  0  0  0  0  0  0  0  0  0  0  0
   68.0959   52.1949   15.5971 C   0  0  0  0  0  0  0  0  0  0  0  0
   67.0806   51.4620   14.8232 C   0  0  0  0  0  0  0  0  0  0  0  0
   66.5976   52.2288   13.6583 C   0  0  0  0  0  0  0  0  0  0  0  0
   66.7677   53.5421   13.6050 C   0  0  0  0  0  0  0  0  0  0  0  0
   67.4140   54.3731   14.6206 C   0  0  0  0  0  0  0  0  0  0  0  0
   70.9688   57.0729   15.6261 C   0  0  2  0  0  0  0  0  0  0  0  0
   71.0632   57.0598   14.2063 O   0  0  0  0  0  0  0  0  0  0  0  0
   71.9168   58.0432   16.1930 C   0  0  1  0  0  0  0  0  0  0  0  0
   71.5372   59.3083   15.6563 O   0  0  0  0  0  0  0  0  0  0  0  0
   71.8030   58.1228   17.7166 C   0  0  1  0  0  0  0  0  0  0  0  0
   72.6315   59.2013   18.1441 O   0  0  0  0  0  0  0  0  0  0  0  0
   73.6467   58.7415   18.9565 C   0  0  0  0  0  0  0  0  0  0  0  0
   74.5145   59.8669   19.4313 C   0  0  0  0  0  0  0  0  0  0  0  0
   74.2955   60.5411   20.6042 C   0  0  0  0  0  0  0  0  0  0  0  0
   75.0632   61.5874   21.0645 C   0  0  0  0  0  0  0  0  0  0  0  0
   76.1360   61.9867   20.2846 C   0  0  0  0  0  0  0  0  0  0  0  0
   76.3629   61.3162   19.1084 C   0  0  0  0  0  0  0  0  0  0  0  0
   75.5896   60.2677   18.6516 C   0  0  0  0  0  0  0  0  0  0  0  0
   70.4065   58.3581   18.0926 C   0  0  0  0  0  0  0  0  0  0  0  0
   69.4770   57.5172   18.0665 O   0  0  0  0  0  0  0  0  0  0  0  0
   70.0282   59.6758   18.5379 N   0  0  0  0  0  0  0  0  0  0  0  0
   68.5943   59.8333   18.9041 C   0  0  2  0  0  0  0  0  0  0  0  0
   67.9249   60.3767   17.6569 C   0  0  0  0  0  0  0  0  0  0  0  0
   68.6410   60.8214   16.6936 O   0  0  0  0  0  0  0  0  0  0  0  0
   66.5240   60.4115   17.4994 N   0  0  0  0  0  0  0  0  0  0  0  0
   65.9755   60.9650   16.2524 C   0  0  0  0  0  0  0  0  0  0  0  0
   68.4677   60.8515   19.9860 C   0  0  1  0  0  0  0  0  0  0  0  0
   66.9856   61.0256   20.3394 C   0  0  0  0  0  0  0  0  0  0  0  0
   69.1393   60.5027   21.2827 C   0  0  0  0  0  0  0  0  0  0  0  0
   70.6173   60.2858   21.2242 C   0  0  0  0  0  0  0  0  0  0  0  0
   74.0675   54.2849   12.5907 C   0  0  0  0  0  0  0  0  0  0  0  0
   75.1919   53.9560   12.1050 O   0  0  0  0  0  0  0  0  0  0  0  0
   73.1966   55.1888   11.9238 N   0  0  0  0  0  0  0  0  0  0  0  0
   73.5833   55.7644   10.6483 C   0  0  0  0  0  0  0  0  0  0  0  0
  1  2  1  0
  2  3  1  0
  3  4  1  1
  3  5  1  0
  5  6  1  6
  6  7  1  0
  7  8  2  0
  7  9  1  0
  9 10  1  6
 10 11  1  0
 11 12  1  0
 12 13  2  0
 13 14  1  0
 14 15  1  0
 15 16  2  0
 16 17  1  0
  9 18  1  0
 18 19  1  6
 18 20  1  0
 20 21  1  6
 20 22  1  0
 22 23  1  6
 23 24  1  0
 24 25  1  0
 25 26  2  0
 26 27  1  0
 27 28  2  0
 28 29  1  0
 29 30  2  0
 22 31  1  0
 31 32  2  0
 31 33  1  0
 34 33  1  6
 34 35  1  0
 35 36  2  0
 35 37  1  0
 37 38  1  0
 34 39  1  0
 39 40  1  1
 39 41  1  0
 41 42  1  0
  5 43  1  0
 43 44  2  0
 43 45  1  0
 45 46  1  0
 17 12  1  0
 30 25  1  0
M  END
>  <shape_align_shape_tanimoto>  (1) 
0.60402209296569576

>  <shape_align_color_tanimoto>  (1) 
0.05939280233132839

>  <metric>  (1) 
shape

>  <metric_score>  (1) 
0.604

>  <template_pid>  (1) 
1EBW

>  <template_shape_score>  (1) 
0.604

>  <template_color_score>  (1) 
0.059

>  <template_combo_score>  (1) 
0.332

$$$$
1EBW_color_pose
     RDKit          3D

 46 47  0  0  0  0  0  0  0  0999 V2000
   69.3164   61.4221   21.4284 C   0  0  0  0  0  0  0  0  0  0  0  0
   69.3386   60.7286   20.0833 C   0  0  0  0  0  0  0  0  0  0  0  0
   68.2118   59.7460   20.0393 C   0  0  2  0  0  0  0  0  0  0  0  0
   68.2922   58.6936   21.1022 C   0  0  0  0  0  0  0  0  0  0  0  0
   68.0091   59.1271   18.6724 C   0  0  2  0  0  0  0  0  0  0  0  0
   69.2055   58.4125   18.2374 N   0  0  0  0  0  0  0  0  0  0  0  0
   69.2028   57.0220   18.0715 C   0  0  0  0  0  0  0  0  0  0  0  0
   68.1477   56.3373   18.2976 O   0  0  0  0  0  0  0  0  0  0  0  0
   70.3901   56.2059   17.6267 C   0  0  2  0  0  0  0  0  0  0  0  0
   69.9310   54.8613   17.5918 O   0  0  0  0  0  0  0  0  0  0  0  0
   69.8332   54.2530   16.4071 C   0  0  0  0  0  0  0  0  0  0  0  0
   71.1359   54.0909   15.7241 C   0  0  0  0  0  0  0  0  0  0  0  0
   71.4266   54.6011   14.5338 C   0  0  0  0  0  0  0  0  0  0  0  0
   72.7507   54.4221   13.8685 C   0  0  0  0  0  0  0  0  0  0  0  0
   73.7726   54.5042   14.9515 C   0  0  0  0  0  0  0  0  0  0  0  0
   73.5032   53.9671   16.1339 C   0  0  0  0  0  0  0  0  0  0  0  0
   72.2034   53.2898   16.3875 C   0  0  0  0  0  0  0  0  0  0  0  0
   71.4942   56.1984   18.6089 C   0  0  2  0  0  0  0  0  0  0  0  0
   70.9199   55.7356   19.8312 O   0  0  0  0  0  0  0  0  0  0  0  0
   72.3017   57.4088   18.8611 C   0  0  1  0  0  0  0  0  0  0  0  0
   73.2892   56.9379   19.8157 O   0  0  0  0  0  0  0  0  0  0  0  0
   73.1355   57.9414   17.7385 C   0  0  1  0  0  0  0  0  0  0  0  0
   72.3248   58.4981   16.7737 O   0  0  0  0  0  0  0  0  0  0  0  0
   72.6234   58.1754   15.4796 C   0  0  0  0  0  0  0  0  0  0  0  0
   71.7412   58.8516   14.4988 C   0  0  0  0  0  0  0  0  0  0  0  0
   70.5336   58.3604   14.0707 C   0  0  0  0  0  0  0  0  0  0  0  0
   69.7363   59.0184   13.1471 C   0  0  0  0  0  0  0  0  0  0  0  0
   70.2173   60.2205   12.6610 C   0  0  0  0  0  0  0  0  0  0  0  0
   71.4221   60.7526   13.0609 C   0  0  0  0  0  0  0  0  0  0  0  0
   72.1858   60.0675   13.9813 C   0  0  0  0  0  0  0  0  0  0  0  0
   73.9681   59.1244   18.2285 C   0  0  0  0  0  0  0  0  0  0  0  0
   73.6395   60.2210   17.7054 O   0  0  0  0  0  0  0  0  0  0  0  0
   74.9964   58.9975   19.1666 N   0  0  0  0  0  0  0  0  0  0  0  0
   75.7505   60.2092   19.5803 C   0  0  2  0  0  0  0  0  0  0  0  0
   74.8918   61.0377   20.4292 C   0  0  0  0  0  0  0  0  0  0  0  0
   73.6699   60.6558   20.5451 O   0  0  0  0  0  0  0  0  0  0  0  0
   75.2413   62.1988   21.1348 N   0  0  0  0  0  0  0  0  0  0  0  0
   74.2496   62.9145   21.9404 C   0  0  0  0  0  0  0  0  0  0  0  0
   76.4469   60.8621   18.4513 C   0  0  1  0  0  0  0  0  0  0  0  0
   77.2372   62.1222   18.8204 C   0  0  0  0  0  0  0  0  0  0  0  0
   77.4583   60.0198   17.7151 C   0  0  0  0  0  0  0  0  0  0  0  0
   76.9562   58.7915   17.0585 C   0  0  0  0  0  0  0  0  0  0  0  0
   67.5614   60.1565   17.7313 C   0  0  0  0  0  0  0  0  0  0  0  0
   66.5385   60.8882   17.9213 O   0  0  0  0  0  0  0  0  0  0  0  0
   68.2763   60.3949   16.5158 N   0  0  0  0  0  0  0  0  0  0  0  0
   67.8502   61.4035   15.5788 C   0  0  0  0  0  0  0  0  0  0  0  0
  1  2  1  0
  2  3  1  0
  3  4  1  1
  3  5  1  0
  5  6  1  6
  6  7  1  0
  7  8  2  0
  7  9  1  0
  9 10  1  1
 10 11  1  0
 11 12  1  0
 12 13  2  0
 13 14  1  0
 14 15  1  0
 15 16  2  0
 16 17  1  0
  9 18  1  0
 18 19  1  1
 18 20  1  0
 20 21  1  1
 20 22  1  0
 22 23  1  6
 23 24  1  0
 24 25  1  0
 25 26  2  0
 26 27  1  0
 27 28  2  0
 28 29  1  0
 29 30  2  0
 22 31  1  0
 31 32  2  0
 31 33  1  0
 34 33  1  6
 34 35  1  0
 35 36  2  0
 35 37  1  0
 37 38  1  0
 34 39  1  0
 39 40  1  1
 39 41  1  0
 41 42  1  0
  5 43  1  0
 43 44  2  0
 43 45  1  0
 45 46  1  0
 17 12  1  0
 30 25  1  0
M  END
>  <shape_align_shape_tanimoto>  (2) 
0.42617778638855724

>  <shape_align_color_tanimoto>  (2) 
0.084510412804610954

>  <metric>  (2) 
color

>  <metric_score>  (2) 
0.085

>  <template_pid>  (2) 
1EBW

>  <template_shape_score>  (2) 
0.426

>  <template_color_score>  (2) 
0.085

>  <template_combo_score>  (2) 
0.255

$$$$
1EBW_combo_pose
     RDKit          3D

 46 47  0  0  0  0  0  0  0  0999 V2000
   72.8906   51.7352   11.5831 C   0  0  0  0  0  0  0  0  0  0  0  0
   72.7741   51.5024   13.0427 C   0  0  0  0  0  0  0  0  0  0  0  0
   73.8146   52.1716   13.9063 C   0  0  2  0  0  0  0  0  0  0  0  0
   73.4399   51.7464   15.3391 C   0  0  0  0  0  0  0  0  0  0  0  0
   73.7271   53.6577   13.9057 C   0  0  2  0  0  0  0  0  0  0  0  0
   72.4379   54.1106   14.3925 N   0  0  0  0  0  0  0  0  0  0  0  0
   72.4201   55.0816   15.4511 C   0  0  0  0  0  0  0  0  0  0  0  0
   73.5085   55.5311   15.9486 O   0  0  0  0  0  0  0  0  0  0  0  0
   71.1615   55.6194   16.0225 C   0  0  2  0  0  0  0  0  0  0  0  0
   70.1369   54.8723   15.4260 O   0  0  0  0  0  0  0  0  0  0  0  0
   69.3004   54.2460   16.3130 C   0  0  0  0  0  0  0  0  0  0  0  0
   68.2529   53.5032   15.5128 C   0  0  0  0  0  0  0  0  0  0  0  0
   68.0959   52.1949   15.5971 C   0  0  0  0  0  0  0  0  0  0  0  0
   67.0806   51.4620   14.8232 C   0  0  0  0  0  0  0  0  0  0  0  0
   66.5976   52.2288   13.6583 C   0  0  0  0  0  0  0  0  0  0  0  0
   66.7677   53.5421   13.6050 C   0  0  0  0  0  0  0  0  0  0  0  0
   67.4140   54.3731   14.6206 C   0  0  0  0  0  0  0  0  0  0  0  0
   70.9688   57.0729   15.6261 C   0  0  2  0  0  0  0  0  0  0  0  0
   71.0632   57.0598   14.2063 O   0  0  0  0  0  0  0  0  0  0  0  0
   71.9168   58.0432   16.1930 C   0  0  1  0  0  0  0  0  0  0  0  0
   71.5372   59.3083   15.6563 O   0  0  0  0  0  0  0  0  0  0  0  0
   71.8030   58.1228   17.7166 C   0  0  1  0  0  0  0  0  0  0  0  0
   72.6315   59.2013   18.1441 O   0  0  0  0  0  0  0  0  0  0  0  0
   73.6467   58.7415   18.9565 C   0  0  0  0  0  0  0  0  0  0  0  0
   74.5145   59.8669   19.4313 C   0  0  0  0  0  0  0  0  0  0  0  0
   74.2955   60.5411   20.6042 C   0  0  0  0  0  0  0  0  0  0  0  0
   75.0632   61.5874   21.0645 C   0  0  0  0  0  0  0  0  0  0  0  0
   76.1360   61.9867   20.2846 C   0  0  0  0  0  0  0  0  0  0  0  0
   76.3629   61.3162   19.1084 C   0  0  0  0  0  0  0  0  0  0  0  0
   75.5896   60.2677   18.6516 C   0  0  0  0  0  0  0  0  0  0  0  0
   70.4065   58.3581   18.0926 C   0  0  0  0  0  0  0  0  0  0  0  0
   69.4770   57.5172   18.0665 O   0  0  0  0  0  0  0  0  0  0  0  0
   70.0282   59.6758   18.5379 N   0  0  0  0  0  0  0  0  0  0  0  0
   68.5943   59.8333   18.9041 C   0  0  2  0  0  0  0  0  0  0  0  0
   67.9249   60.3767   17.6569 C   0  0  0  0  0  0  0  0  0  0  0  0
   68.6410   60.8214   16.6936 O   0  0  0  0  0  0  0  0  0  0  0  0
   66.5240   60.4115   17.4994 N   0  0  0  0  0  0  0  0  0  0  0  0
   65.9755   60.9650   16.2524 C   0  0  0  0  0  0  0  0  0  0  0  0
   68.4677   60.8515   19.9860 C   0  0  1  0  0  0  0  0  0  0  0  0
   66.9856   61.0256   20.3394 C   0  0  0  0  0  0  0  0  0  0  0  0
   69.1393   60.5027   21.2827 C   0  0  0  0  0  0  0  0  0  0  0  0
   70.6173   60.2858   21.2242 C   0  0  0  0  0  0  0  0  0  0  0  0
   74.0675   54.2849   12.5907 C   0  0  0  0  0  0  0  0  0  0  0  0
   75.1919   53.9560   12.1050 O   0  0  0  0  0  0  0  0  0  0  0  0
   73.1966   55.1888   11.9238 N   0  0  0  0  0  0  0  0  0  0  0  0
   73.5833   55.7644   10.6483 C   0  0  0  0  0  0  0  0  0  0  0  0
  1  2  1  0
  2  3  1  0
  3  4  1  1
  3  5  1  0
  5  6  1  6
  6  7  1  0
  7  8  2  0
  7  9  1  0
  9 10  1  6
 10 11  1  0
 11 12  1  0
 12 13  2  0
 13 14  1  0
 14 15  1  0
 15 16  2  0
 16 17  1  0
  9 18  1  0
 18 19  1  6
 18 20  1  0
 20 21  1  6
 20 22  1  0
 22 23  1  6
 23 24  1  0
 24 25  1  0
 25 26  2  0
 26 27  1  0
 27 28  2  0
 28 29  1  0
 29 30  2  0
 22 31  1  0
 31 32  2  0
 31 33  1  0
 34 33  1  6
 34 35  1  0
 35 36  2  0
 35 37  1  0
 37 38  1  0
 34 39  1  0
 39 40  1  1
 39 41  1  0
 41 42  1  0
  5 43  1  0
 43 44  2  0
 43 45  1  0
 45 46  1  0
 17 12  1  0
 30 25  1  0
M  END
>  <shape_align_shape_tanimoto>  (3) 
0.60402209296569576

>  <shape_align_color_tanimoto>  (3) 
0.05939280233132839

>  <metric>  (3) 
combo

>  <metric_score>  (3) 
0.332

>  <template_pid>  (3) 
1EBW

>  <template_shape_score>  (3) 
0.604

>  <template_color_score>  (3) 
0.059

>  <template_combo_score>  (3) 
0.332

$$$$
