4Q18_shape_pose
     RDKit          3D

 32 34  0  0  0  0  0  0  0  0999 V2000
  -15.5589   -9.7103   62.2266 C   0  0  0  0  0  0  0  0  0  0  0  0
  -14.8739   -8.4925   62.7966 C   0  0  0  0  0  0  0  0  0  0  0  0
  -15.8500   -7.3593   63.1037 C   0  0  0  0  0  0  0  0  0  0  0  0
  -16.8339   -7.6686   64.1104 C   0  0  0  0  0  0  0  0  0  0  0  0
  -17.0465   -9.3866   64.5565 S   0  0  0  0  0  0  0  0  0  0  0  0
  -18.2227   -8.9735   65.9634 C   0  0  0  0  0  0  0  0  0  0  0  0
  -18.6182   -9.9981   66.9287 C   0  0  0  0  0  0  0  0  0  0  0  0
  -19.6641   -9.9941   67.7715 C   0  0  0  0  0  0  0  0  0  0  0  0
  -19.7442  -10.9284   68.8051 C   0  0  0  0  0  0  0  0  0  0  0  0
  -18.7828  -11.8810   69.0244 C   0  0  0  0  0  0  0  0  0  0  0  0
  -18.6277  -12.8561   69.8753 O   0  0  0  0  0  0  0  0  0  0  0  0
  -18.4835  -13.8036   70.7071 C   0  0  0  0  0  0  0  0  0  0  0  0
  -17.6222  -11.8660   68.1074 C   0  0  0  0  0  0  0  0  0  0  0  0
  -16.5844  -12.7590   68.3523 O   0  0  0  0  0  0  0  0  0  0  0  0
  -15.3258  -12.5539   67.6869 C   0  0  0  0  0  0  0  0  0  0  0  0
  -14.7966  -11.1869   68.0027 C   0  0  0  0  0  0  0  0  0  0  0  0
  -13.4988  -11.2377   68.7835 C   0  0  0  0  0  0  0  0  0  0  0  0
  -14.4888  -10.3399   66.8126 C   0  0  0  0  0  0  0  0  0  0  0  0
  -15.7541  -10.5953   68.8750 O   0  0  0  0  0  0  0  0  0  0  0  0
  -17.5817  -10.9663   67.1172 C   0  0  0  0  0  0  0  0  0  0  0  0
  -18.2655   -7.7760   65.8675 N   0  0  0  0  0  0  0  0  0  0  0  0
  -17.6193   -7.0228   64.9950 C   0  0  0  0  0  0  0  0  0  0  0  0
  -17.7170   -5.4969   64.9211 C   0  0  0  0  0  0  0  0  0  0  0  0
  -19.0022   -4.9554   63.7657 S   0  0  0  0  0  0  0  0  0  0  0  0
  -18.8204   -5.8219   62.2081 C   0  0  0  0  0  0  0  0  0  0  0  0
  -17.9705   -5.3911   61.1932 C   0  0  0  0  0  0  0  0  0  0  0  0
  -17.8965   -6.2372   60.1084 C   0  0  0  0  0  0  0  0  0  0  0  0
  -16.9429   -6.0056   59.0512 N   0  0  0  0  0  0  0  0  0  0  0  0
  -18.6461   -7.4093   60.0607 N   0  0  0  0  0  0  0  0  0  0  0  0
  -19.4401   -7.7594   61.0486 C   0  0  0  0  0  0  0  0  0  0  0  0
  -20.1739   -8.9470   60.9887 N   0  0  0  0  0  0  0  0  0  0  0  0
  -19.5351   -6.9875   62.1172 N   0  0  0  0  0  0  0  0  0  0  0  0
  1  2  1  0
  2  3  1  0
  3  4  1  0
  4  5  1  0
  5  6  1  0
  6  7  1  0
  7  8  2  0
  8  9  1  0
  9 10  2  0
 10 11  1  0
 11 12  1  0
 10 13  1  0
 13 14  1  0
 14 15  1  0
 15 16  1  0
 16 17  1  0
 16 18  1  0
 16 19  1  0
 13 20  2  0
  6 21  2  0
 21 22  1  0
 22 23  1  0
 23 24  1  0
 24 25  1  0
 25 26  2  0
 26 27  1  0
 27 28  1  0
 27 29  2  0
 29 30  1  0
 30 31  1  0
 30 32  2  0
 22  4  2  0
 32 25  1  0
 20  7  1  0
M  END
>  <shape_align_shape_tanimoto>  (1) 
0.5111743300940631

>  <shape_align_color_tanimoto>  (1) 
0.031867253584671927

>  <metric>  (1) 
shape

>  <metric_score>  (1) 
0.511

>  <template_pid>  (1) 
4Q18

>  <template_shape_score>  (1) 
0.511

>  <template_color_score>  (1) 
0.032

>  <template_combo_score>  (1) 
0.272

$$$$
4Q18_color_pose
     RDKit          3D

 32 34  0  0  0  0  0  0  0  0999 V2000
  -14.0848  -10.4001   67.6391 C   0  0  0  0  0  0  0  0  0  0  0  0
  -15.1982  -11.0776   68.3913 C   0  0  0  0  0  0  0  0  0  0  0  0
  -16.3060  -11.5519   67.4931 C   0  0  0  0  0  0  0  0  0  0  0  0
  -16.9304  -10.4322   66.7425 C   0  0  0  0  0  0  0  0  0  0  0  0
  -16.5276   -9.9945   65.0376 S   0  0  0  0  0  0  0  0  0  0  0  0
  -17.7181   -8.5278   65.1138 C   0  0  0  0  0  0  0  0  0  0  0  0
  -17.8131   -7.7051   63.8571 C   0  0  0  0  0  0  0  0  0  0  0  0
  -17.0815   -8.0148   62.7443 C   0  0  0  0  0  0  0  0  0  0  0  0
  -17.2327   -7.2051   61.6415 C   0  0  0  0  0  0  0  0  0  0  0  0
  -18.0785   -6.1371   61.6574 C   0  0  0  0  0  0  0  0  0  0  0  0
  -18.1768   -5.3682   60.5076 O   0  0  0  0  0  0  0  0  0  0  0  0
  -17.4306   -5.6660   59.3457 C   0  0  0  0  0  0  0  0  0  0  0  0
  -18.8532   -5.7888   62.7976 C   0  0  0  0  0  0  0  0  0  0  0  0
  -19.6315   -4.7340   62.6720 O   0  0  0  0  0  0  0  0  0  0  0  0
  -20.5390   -4.0319   63.3650 C   0  0  0  0  0  0  0  0  0  0  0  0
  -21.8536   -4.6279   63.7535 C   0  0  0  0  0  0  0  0  0  0  0  0
  -22.6030   -4.9548   62.4646 C   0  0  0  0  0  0  0  0  0  0  0  0
  -21.8459   -5.7986   64.6651 C   0  0  0  0  0  0  0  0  0  0  0  0
  -22.5692   -3.6036   64.4342 O   0  0  0  0  0  0  0  0  0  0  0  0
  -18.6629   -6.6291   63.8695 C   0  0  0  0  0  0  0  0  0  0  0  0
  -18.1154   -8.6091   66.1620 N   0  0  0  0  0  0  0  0  0  0  0  0
  -17.8586   -9.4833   67.1450 C   0  0  0  0  0  0  0  0  0  0  0  0
  -18.5822   -9.3969   68.4563 C   0  0  0  0  0  0  0  0  0  0  0  0
  -20.0470  -10.3748   68.5978 S   0  0  0  0  0  0  0  0  0  0  0  0
  -19.7398  -12.1121   68.5622 C   0  0  0  0  0  0  0  0  0  0  0  0
  -19.7591  -12.7786   67.3321 C   0  0  0  0  0  0  0  0  0  0  0  0
  -19.5128  -14.1423   67.3431 C   0  0  0  0  0  0  0  0  0  0  0  0
  -19.5234  -14.8653   66.1008 N   0  0  0  0  0  0  0  0  0  0  0  0
  -19.2704  -14.7601   68.5053 N   0  0  0  0  0  0  0  0  0  0  0  0
  -19.2488  -14.1279   69.7015 C   0  0  0  0  0  0  0  0  0  0  0  0
  -18.9849  -14.8350   70.9087 N   0  0  0  0  0  0  0  0  0  0  0  0
  -19.4888  -12.7911   69.7033 N   0  0  0  0  0  0  0  0  0  0  0  0
  1  2  1  0
  2  3  1  0
  3  4  1  0
  4  5  1  0
  5  6  1  0
  6  7  1  0
  7  8  2  0
  8  9  1  0
  9 10  2  0
 10 11  1  0
 11 12  1  0
 10 13  1  0
 13 14  1  0
 14 15  1  0
 15 16  1  0
 16 17  1  0
 16 18  1  0
 16 19  1  0
 13 20  2  0
  6 21  2  0
 21 22  1  0
 22 23  1  0
 23 24  1  0
 24 25  1  0
 25 26  2  0
 26 27  1  0
 27 28  1  0
 27 29  2  0
 29 30  1  0
 30 31  1  0
 30 32  2  0
 22  4  2  0
 32 25  1  0
 20  7  1  0
M  END
>  <shape_align_shape_tanimoto>  (2) 
0.4601713328776823

>  <shape_align_color_tanimoto>  (2) 
0.062124184167908859

>  <metric>  (2) 
color

>  <metric_score>  (2) 
0.062

>  <template_pid>  (2) 
4Q18

>  <template_shape_score>  (2) 
0.460

>  <template_color_score>  (2) 
0.062

>  <template_combo_score>  (2) 
0.261

$$$$
4Q18_combo_pose
     RDKit          3D

 32 34  0  0  0  0  0  0  0  0999 V2000
  -15.5589   -9.7103   62.2266 C   0  0  0  0  0  0  0  0  0  0  0  0
  -14.8739   -8.4925   62.7966 C   0  0  0  0  0  0  0  0  0  0  0  0
  -15.8500   -7.3593   63.1037 C   0  0  0  0  0  0  0  0  0  0  0  0
  -16.8339   -7.6686   64.1104 C   0  0  0  0  0  0  0  0  0  0  0  0
  -17.0465   -9.3866   64.5565 S   0  0  0  0  0  0  0  0  0  0  0  0
  -18.2227   -8.9735   65.9634 C   0  0  0  0  0  0  0  0  0  0  0  0
  -18.6182   -9.9981   66.9287 C   0  0  0  0  0  0  0  0  0  0  0  0
  -19.6641   -9.9941   67.7715 C   0  0  0  0  0  0  0  0  0  0  0  0
  -19.7442  -10.9284   68.8051 C   0  0  0  0  0  0  0  0  0  0  0  0
  -18.7828  -11.8810   69.0244 C   0  0  0  0  0  0  0  0  0  0  0  0
  -18.6277  -12.8561   69.8753 O   0  0  0  0  0  0  0  0  0  0  0  0
  -18.4835  -13.8036   70.7071 C   0  0  0  0  0  0  0  0  0  0  0  0
  -17.6222  -11.8660   68.1074 C   0  0  0  0  0  0  0  0  0  0  0  0
  -16.5844  -12.7590   68.3523 O   0  0  0  0  0  0  0  0  0  0  0  0
  -15.3258  -12.5539   67.6869 C   0  0  0  0  0  0  0  0  0  0  0  0
  -14.7966  -11.1869   68.0027 C   0  0  0  0  0  0  0  0  0  0  0  0
  -13.4988  -11.2377   68.7835 C   0  0  0  0  0  0  0  0  0  0  0  0
  -14.4888  -10.3399   66.8126 C   0  0  0  0  0  0  0  0  0  0  0  0
  -15.7541  -10.5953   68.8750 O   0  0  0  0  0  0  0  0  0  0  0  0
  -17.5817  -10.9663   67.1172 C   0  0  0  0  0  0  0  0  0  0  0  0
  -18.2655   -7.7760   65.8675 N   0  0  0  0  0  0  0  0  0  0  0  0
  -17.6193   -7.0228   64.9950 C   0  0  0  0  0  0  0  0  0  0  0  0
  -17.7170   -5.4969   64.9211 C   0  0  0  0  0  0  0  0  0  0  0  0
  -19.0022   -4.9554   63.7657 S   0  0  0  0  0  0  0  0  0  0  0  0
  -18.8204   -5.8219   62.2081 C   0  0  0  0  0  0  0  0  0  0  0  0
  -17.9705   -5.3911   61.1932 C   0  0  0  0  0  0  0  0  0  0  0  0
  -17.8965   -6.2372   60.1084 C   0  0  0  0  0  0  0  0  0  0  0  0
  -16.9429   -6.0056   59.0512 N   0  0  0  0  0  0  0  0  0  0  0  0
  -18.6461   -7.4093   60.0607 N   0  0  0  0  0  0  0  0  0  0  0  0
  -19.4401   -7.7594   61.0486 C   0  0  0  0  0  0  0  0  0  0  0  0
  -20.1739   -8.9470   60.9887 N   0  0  0  0  0  0  0  0  0  0  0  0
  -19.5351   -6.9875   62.1172 N   0  0  0  0  0  0  0  0  0  0  0  0
  1  2  1  0
  2  3  1  0
  3  4  1  0
  4  5  1  0
  5  6  1  0
  6  7  1  0
  7  8  2  0
  8  9  1  0
  9 10  2  0
 10 11  1  0
 11 12  1  0
 10 13  1  0
 13 14  1  0
 14 15  1  0
 15 16  1  0
 16 17  1  0
 16 18  1  0
 16 19  1  0
 13 20  2  0
  6 21  2  0
 21 22  1  0
 22 23  1  0
 23 24  1  0
 24 25  1  0
 25 26  2  0
 26 27  1  0
 27 28  1  0
 27 29  2  0
 29 30  1  0
 30 31  1  0
 30 32  2  0
 22  4  2  0
 32 25  1  0
 20  7  1  0
M  END
>  <shape_align_shape_tanimoto>  (3) 
0.5111743300940631

>  <shape_align_color_tanimoto>  (3) 
0.031867253584671927

>  <metric>  (3) 
combo

>  <metric_score>  (3) 
0.272

>  <template_pid>  (3) 
4Q18

>  <template_shape_score>  (3) 
0.511

>  <template_color_score>  (3) 
0.032

>  <template_combo_score>  (3) 
0.272

$$$$
