5KHI_shape_pose
     RDKit          3D

 21 24  0  0  0  0  0  0  0  0999 V2000
   -8.9988  -29.7034    5.0067 O   0  0  0  0  0  0  0  0  0  0  0  0
   -8.1002  -28.4726    5.0045 P   0  0  2  0  0  5  0  0  0  0  0  0
   -9.1104  -27.1618    5.4388 O   0  0  0  0  0  0  0  0  0  0  0  0
   -7.4613  -28.1391    3.4964 O   0  0  0  0  0  0  0  0  0  0  0  0
   -6.2477  -28.7973    3.2378 C   0  0  0  0  0  0  0  0  0  0  0  0
   -5.9815  -29.6736    4.4149 C   0  0  1  0  0  0  0  0  0  0  0  0
   -4.8127  -30.4022    4.3618 O   0  0  0  0  0  0  0  0  0  0  0  0
   -4.7629  -30.8294    5.7078 C   0  0  1  0  0  0  0  0  0  0  0  0
   -3.6875  -31.7348    5.9658 N   0  0  0  0  0  0  0  0  0  0  0  0
   -3.1560  -31.9480    7.1821 C   0  0  0  0  0  0  0  0  0  0  0  0
   -2.1561  -32.8697    7.0510 N   0  0  0  0  0  0  0  0  0  0  0  0
   -2.0779  -33.2198    5.7487 C   0  0  0  0  0  0  0  0  0  0  0  0
   -1.2450  -34.1089    5.0756 C   0  0  0  0  0  0  0  0  0  0  0  0
   -1.4397  -34.2211    3.7457 N   0  0  0  0  0  0  0  0  0  0  0  0
   -2.3817  -33.5241    3.0731 C   0  0  0  0  0  0  0  0  0  0  0  0
   -3.1939  -32.6578    3.7261 N   0  0  0  0  0  0  0  0  0  0  0  0
   -3.0477  -32.5032    5.0519 C   0  0  0  0  0  0  0  0  0  0  0  0
   -4.6741  -29.5137    6.4044 C   0  0  2  0  0  0  0  0  0  0  0  0
   -4.9942  -29.5231    7.7392 O   0  0  0  0  0  0  0  0  0  0  0  0
   -5.6983  -28.7187    5.5832 C   0  0  2  0  0  0  0  0  0  0  0  0
   -6.9102  -28.5758    6.2218 O   0  0  0  0  0  0  0  0  0  0  0  0
  1  2  2  0
  2  3  1  1
  2  4  1  0
  4  5  1  0
  6  5  1  6
  6  7  1  0
  7  8  1  0
  8  9  1  6
  9 10  1  0
 10 11  2  0
 11 12  1  0
 12 13  2  0
 13 14  1  0
 14 15  2  0
 15 16  1  0
 16 17  2  0
  8 18  1  0
 18 19  1  1
 18 20  1  0
 20 21  1  1
 21  2  1  0
 20  6  1  0
 17  9  1  0
 17 12  1  0
M  END
>  <shape_align_shape_tanimoto>  (1) 
0.68078412238987351

>  <shape_align_color_tanimoto>  (1) 
0.11256678518026017

>  <metric>  (1) 
shape

>  <metric_score>  (1) 
0.681

>  <template_pid>  (1) 
5KHI

>  <template_shape_score>  (1) 
0.681

>  <template_color_score>  (1) 
0.113

>  <template_combo_score>  (1) 
0.397

$$$$
5KHI_color_pose
     RDKit          3D

 21 24  0  0  0  0  0  0  0  0999 V2000
  -10.2439  -27.2124    3.5162 O   0  0  0  0  0  0  0  0  0  0  0  0
   -9.7012  -28.0275    4.6779 P   0  0  2  0  0  5  0  0  0  0  0  0
  -10.9911  -28.8448    5.4083 O   0  0  0  0  0  0  0  0  0  0  0  0
   -9.0364  -26.9547    5.7711 O   0  0  0  0  0  0  0  0  0  0  0  0
   -7.9531  -27.4931    6.4700 C   0  0  0  0  0  0  0  0  0  0  0  0
   -6.9827  -27.9827    5.4480 C   0  0  1  0  0  0  0  0  0  0  0  0
   -5.7727  -28.4048    5.9775 O   0  0  0  0  0  0  0  0  0  0  0  0
   -5.1372  -29.0389    4.9337 C   0  0  1  0  0  0  0  0  0  0  0  0
   -4.3901  -30.2171    5.3616 N   0  0  0  0  0  0  0  0  0  0  0  0
   -3.8186  -31.0548    4.4773 C   0  0  0  0  0  0  0  0  0  0  0  0
   -3.2057  -32.0388    5.1594 N   0  0  0  0  0  0  0  0  0  0  0  0
   -3.4073  -31.7957    6.4688 C   0  0  0  0  0  0  0  0  0  0  0  0
   -3.0083  -32.4728    7.6087 C   0  0  0  0  0  0  0  0  0  0  0  0
   -3.3673  -31.9802    8.8056 N   0  0  0  0  0  0  0  0  0  0  0  0
   -4.0957  -30.8579    8.8921 C   0  0  0  0  0  0  0  0  0  0  0  0
   -4.5142  -30.1545    7.8242 N   0  0  0  0  0  0  0  0  0  0  0  0
   -4.1560  -30.6446    6.6056 C   0  0  0  0  0  0  0  0  0  0  0  0
   -6.2105  -29.5667    3.9837 C   0  0  2  0  0  0  0  0  0  0  0  0
   -6.2943  -28.7670    2.8380 O   0  0  0  0  0  0  0  0  0  0  0  0
   -7.4639  -29.2812    4.8204 C   0  0  2  0  0  0  0  0  0  0  0  0
   -8.5810  -29.1059    4.0433 O   0  0  0  0  0  0  0  0  0  0  0  0
  1  2  2  0
  2  3  1  1
  2  4  1  0
  4  5  1  0
  6  5  1  1
  6  7  1  0
  7  8  1  0
  8  9  1  1
  9 10  1  0
 10 11  2  0
 11 12  1  0
 12 13  2  0
 13 14  1  0
 14 15  2  0
 15 16  1  0
 16 17  2  0
  8 18  1  0
 18 19  1  6
 18 20  1  0
 20 21  1  6
 21  2  1  0
 20  6  1  0
 17  9  1  0
 17 12  1  0
M  END
>  <shape_align_shape_tanimoto>  (2) 
0.59278501971799524

>  <shape_align_color_tanimoto>  (2) 
0.13556284881341837

>  <metric>  (2) 
color

>  <metric_score>  (2) 
0.136

>  <template_pid>  (2) 
5KHI

>  <template_shape_score>  (2) 
0.593

>  <template_color_score>  (2) 
0.136

>  <template_combo_score>  (2) 
0.364

$$$$
5KHI_combo_pose
     RDKit          3D

 21 24  0  0  0  0  0  0  0  0999 V2000
   -8.9988  -29.7034    5.0067 O   0  0  0  0  0  0  0  0  0  0  0  0
   -8.1002  -28.4726    5.0045 P   0  0  2  0  0  5  0  0  0  0  0  0
   -9.1104  -27.1618    5.4388 O   0  0  0  0  0  0  0  0  0  0  0  0
   -7.4613  -28.1391    3.4964 O   0  0  0  0  0  0  0  0  0  0  0  0
   -6.2477  -28.7973    3.2378 C   0  0  0  0  0  0  0  0  0  0  0  0
   -5.9815  -29.6736    4.4149 C   0  0  1  0  0  0  0  0  0  0  0  0
   -4.8127  -30.4022    4.3618 O   0  0  0  0  0  0  0  0  0  0  0  0
   -4.7629  -30.8294    5.7078 C   0  0  1  0  0  0  0  0  0  0  0  0
   -3.6875  -31.7348    5.9658 N   0  0  0  0  0  0  0  0  0  0  0  0
   -3.1560  -31.9480    7.1821 C   0  0  0  0  0  0  0  0  0  0  0  0
   -2.1561  -32.8697    7.0510 N   0  0  0  0  0  0  0  0  0  0  0  0
   -2.0779  -33.2198    5.7487 C   0  0  0  0  0  0  0  0  0  0  0  0
   -1.2450  -34.1089    5.0756 C   0  0  0  0  0  0  0  0  0  0  0  0
   -1.4397  -34.2211    3.7457 N   0  0  0  0  0  0  0  0  0  0  0  0
   -2.3817  -33.5241    3.0731 C   0  0  0  0  0  0  0  0  0  0  0  0
   -3.1939  -32.6578    3.7261 N   0  0  0  0  0  0  0  0  0  0  0  0
   -3.0477  -32.5032    5.0519 C   0  0  0  0  0  0  0  0  0  0  0  0
   -4.6741  -29.5137    6.4044 C   0  0  2  0  0  0  0  0  0  0  0  0
   -4.9942  -29.5231    7.7392 O   0  0  0  0  0  0  0  0  0  0  0  0
   -5.6983  -28.7187    5.5832 C   0  0  2  0  0  0  0  0  0  0  0  0
   -6.9102  -28.5758    6.2218 O   0  0  0  0  0  0  0  0  0  0  0  0
  1  2  2  0
  2  3  1  1
  2  4  1  0
  4  5  1  0
  6  5  1  6
  6  7  1  0
  7  8  1  0
  8  9  1  6
  9 10  1  0
 10 11  2  0
 11 12  1  0
 12 13  2  0
 13 14  1  0
 14 15  2  0
 15 16  1  0
 16 17  2  0
  8 18  1  0
 18 19  1  1
 18 20  1  0
 20 21  1  1
 21  2  1  0
 20  6  1  0
 17  9  1  0
 17 12  1  0
M  END
>  <shape_align_shape_tanimoto>  (3) 
0.68078412238987351

>  <shape_align_color_tanimoto>  (3) 
0.11256678518026017

>  <metric>  (3) 
combo

>  <metric_score>  (3) 
0.397

>  <template_pid>  (3) 
5KHI

>  <template_shape_score>  (3) 
0.681

>  <template_color_score>  (3) 
0.113

>  <template_combo_score>  (3) 
0.397

$$$$
