4IE6_shape_pose
     RDKit          3D

 19 20  0  0  0  0  0  0  0  0999 V2000
    4.7839   17.1719  119.1459 O   0  0  0  0  0  0  0  0  0  0  0  0
    5.3628   18.2699  119.4105 C   0  0  0  0  0  0  0  0  0  0  0  0
    4.5987   19.2152  120.0758 O   0  0  0  0  0  0  0  0  0  0  0  0
    6.7765   18.4837  119.0104 C   0  0  0  0  0  0  0  0  0  0  0  0
    7.1568   19.8097  119.4677 N   0  0  0  0  0  0  0  0  0  0  0  0
    7.1071   20.0805  120.8350 C   0  0  0  0  0  0  0  0  0  0  0  0
    6.7243   19.1154  121.5902 O   0  0  0  0  0  0  0  0  0  0  0  0
    7.4342   21.3157  121.5043 C   0  0  0  0  0  0  0  0  0  0  0  0
    7.3023   21.3227  122.8630 N   0  0  0  0  0  0  0  0  0  0  0  0
    7.5815   22.4241  123.5857 C   0  0  0  0  0  0  0  0  0  0  0  0
    7.3813   22.3341  125.3235 Cl  0  0  0  0  0  0  0  0  0  0  0  0
    8.0129   23.6081  123.0344 C   0  0  0  0  0  0  0  0  0  0  0  0
    8.2906   24.7182  123.8005 C   0  0  0  0  0  0  0  0  0  0  0  0
    8.7163   25.8543  123.1511 C   0  0  0  0  0  0  0  0  0  0  0  0
    8.8710   25.9105  121.7661 C   0  0  0  0  0  0  0  0  0  0  0  0
    8.5849   24.7765  121.0083 C   0  0  0  0  0  0  0  0  0  0  0  0
    8.1537   23.6219  121.6530 C   0  0  0  0  0  0  0  0  0  0  0  0
    7.8595   22.4731  120.9289 C   0  0  0  0  0  0  0  0  0  0  0  0
    8.0137   22.5373  119.5747 O   0  0  0  0  0  0  0  0  0  0  0  0
  1  2  2  0
  2  3  1  0
  2  4  1  0
  4  5  1  0
  5  6  1  0
  6  7  2  0
  6  8  1  0
  8  9  2  0
  9 10  1  0
 10 11  1  0
 10 12  2  0
 12 13  1  0
 13 14  2  0
 14 15  1  0
 15 16  2  0
 16 17  1  0
 17 18  2  0
 18 19  1  0
 18  8  1  0
 17 12  1  0
M  CHG  1   3  -1
M  END
>  <shape_align_shape_tanimoto>  (1) 
0.61883796163462368

>  <shape_align_color_tanimoto>  (1) 
0.023756622579216676

>  <metric>  (1) 
shape

>  <metric_score>  (1) 
0.619

>  <template_pid>  (1) 
4IE6

>  <template_shape_score>  (1) 
0.619

>  <template_color_score>  (1) 
0.024

>  <template_combo_score>  (1) 
0.321

$$$$
4IE6_color_pose
     RDKit          3D

 19 20  0  0  0  0  0  0  0  0999 V2000
    8.3756   18.5766  120.5147 O   0  0  0  0  0  0  0  0  0  0  0  0
    7.3154   18.2226  119.9379 C   0  0  0  0  0  0  0  0  0  0  0  0
    7.1381   16.8469  119.7226 O   0  0  0  0  0  0  0  0  0  0  0  0
    6.2718   19.1878  119.4887 C   0  0  0  0  0  0  0  0  0  0  0  0
    6.7519   20.5146  119.8552 N   0  0  0  0  0  0  0  0  0  0  0  0
    7.0046   20.8147  121.2092 C   0  0  0  0  0  0  0  0  0  0  0  0
    6.8267   19.9582  122.1381 O   0  0  0  0  0  0  0  0  0  0  0  0
    7.4870   22.1489  121.5732 C   0  0  0  0  0  0  0  0  0  0  0  0
    7.7054   23.1190  120.6699 N   0  0  0  0  0  0  0  0  0  0  0  0
    8.1532   24.3532  121.0216 C   0  0  0  0  0  0  0  0  0  0  0  0
    8.4130   25.5663  119.7741 Cl  0  0  0  0  0  0  0  0  0  0  0  0
    8.4151   24.6961  122.3321 C   0  0  0  0  0  0  0  0  0  0  0  0
    8.8709   25.9462  122.7077 C   0  0  0  0  0  0  0  0  0  0  0  0
    9.1192   26.2372  124.0508 C   0  0  0  0  0  0  0  0  0  0  0  0
    8.8898   25.2360  124.9471 C   0  0  0  0  0  0  0  0  0  0  0  0
    8.4360   23.9766  124.6174 C   0  0  0  0  0  0  0  0  0  0  0  0
    8.1975   23.7122  123.2829 C   0  0  0  0  0  0  0  0  0  0  0  0
    7.7428   22.4693  122.8970 C   0  0  0  0  0  0  0  0  0  0  0  0
    7.5276   21.4904  123.8538 O   0  0  0  0  0  0  0  0  0  0  0  0
  1  2  2  0
  2  3  1  0
  2  4  1  0
  4  5  1  0
  5  6  1  0
  6  7  2  0
  6  8  1  0
  8  9  2  0
  9 10  1  0
 10 11  1  0
 10 12  2  0
 12 13  1  0
 13 14  2  0
 14 15  1  0
 15 16  2  0
 16 17  1  0
 17 18  2  0
 18 19  1  0
 18  8  1  0
 17 12  1  0
M  CHG  1   3  -1
M  END
>  <shape_align_shape_tanimoto>  (2) 
0.60782430492734951

>  <shape_align_color_tanimoto>  (2) 
0.057243797887832744

>  <metric>  (2) 
color

>  <metric_score>  (2) 
0.057

>  <template_pid>  (2) 
4IE6

>  <template_shape_score>  (2) 
0.608

>  <template_color_score>  (2) 
0.057

>  <template_combo_score>  (2) 
0.333

$$$$
4IE6_combo_pose
     RDKit          3D

 19 20  0  0  0  0  0  0  0  0999 V2000
    8.3756   18.5766  120.5147 O   0  0  0  0  0  0  0  0  0  0  0  0
    7.3154   18.2226  119.9379 C   0  0  0  0  0  0  0  0  0  0  0  0
    7.1381   16.8469  119.7226 O   0  0  0  0  0  0  0  0  0  0  0  0
    6.2718   19.1878  119.4887 C   0  0  0  0  0  0  0  0  0  0  0  0
    6.7519   20.5146  119.8552 N   0  0  0  0  0  0  0  0  0  0  0  0
    7.0046   20.8147  121.2092 C   0  0  0  0  0  0  0  0  0  0  0  0
    6.8267   19.9582  122.1381 O   0  0  0  0  0  0  0  0  0  0  0  0
    7.4870   22.1489  121.5732 C   0  0  0  0  0  0  0  0  0  0  0  0
    7.7054   23.1190  120.6699 N   0  0  0  0  0  0  0  0  0  0  0  0
    8.1532   24.3532  121.0216 C   0  0  0  0  0  0  0  0  0  0  0  0
    8.4130   25.5663  119.7741 Cl  0  0  0  0  0  0  0  0  0  0  0  0
    8.4151   24.6961  122.3321 C   0  0  0  0  0  0  0  0  0  0  0  0
    8.8709   25.9462  122.7077 C   0  0  0  0  0  0  0  0  0  0  0  0
    9.1192   26.2372  124.0508 C   0  0  0  0  0  0  0  0  0  0  0  0
    8.8898   25.2360  124.9471 C   0  0  0  0  0  0  0  0  0  0  0  0
    8.4360   23.9766  124.6174 C   0  0  0  0  0  0  0  0  0  0  0  0
    8.1975   23.7122  123.2829 C   0  0  0  0  0  0  0  0  0  0  0  0
    7.7428   22.4693  122.8970 C   0  0  0  0  0  0  0  0  0  0  0  0
    7.5276   21.4904  123.8538 O   0  0  0  0  0  0  0  0  0  0  0  0
  1  2  2  0
  2  3  1  0
  2  4  1  0
  4  5  1  0
  5  6  1  0
  6  7  2  0
  6  8  1  0
  8  9  2  0
  9 10  1  0
 10 11  1  0
 10 12  2  0
 12 13  1  0
 13 14  2  0
 14 15  1  0
 15 16  2  0
 16 17  1  0
 17 18  2  0
 18 19  1  0
 18  8  1  0
 17 12  1  0
M  CHG  1   3  -1
M  END
>  <shape_align_shape_tanimoto>  (3) 
0.60782430492734951

>  <shape_align_color_tanimoto>  (3) 
0.057243797887832744

>  <metric>  (3) 
combo

>  <metric_score>  (3) 
0.333

>  <template_pid>  (3) 
4IE6

>  <template_shape_score>  (3) 
0.608

>  <template_color_score>  (3) 
0.057

>  <template_combo_score>  (3) 
0.333

$$$$
