6OVZ_shape_pose
     RDKit          3D

 14 14  0  0  0  0  0  0  0  0999 V2000
   32.7494   46.9175    8.2785 O   0  0  0  0  0  0  0  0  0  0  0  0
   33.0000   46.5793    7.1210 C   0  0  0  0  0  0  0  0  0  0  0  0
   34.1449   46.8181    6.4741 O   0  0  0  0  0  0  0  0  0  0  0  0
   35.2440   47.4488    6.8977 N   0  0  0  0  0  0  0  0  0  0  0  0
   35.5428   48.0501    8.1310 C   0  0  0  0  0  0  0  0  0  0  0  0
   34.7693   48.1005    9.1186 O   0  0  0  0  0  0  0  0  0  0  0  0
   36.7816   48.6380    8.2885 O   0  0  0  0  0  0  0  0  0  0  0  0
   37.1404   49.2546    9.4888 C   0  0  0  0  0  0  0  0  0  0  0  0
   36.2914   50.3898    9.9056 C   0  0  0  0  0  0  0  0  0  0  0  0
   36.5080   51.6425    9.3297 C   0  0  0  0  0  0  0  0  0  0  0  0
   35.7771   52.7538    9.6865 C   0  0  0  0  0  0  0  0  0  0  0  0
   34.7868   52.6723   10.6417 C   0  0  0  0  0  0  0  0  0  0  0  0
   34.5519   51.4465   11.2274 C   0  0  0  0  0  0  0  0  0  0  0  0
   35.3026   50.3251   10.8556 C   0  0  0  0  0  0  0  0  0  0  0  0
  1  2  2  0
  2  3  1  0
  3  4  1  0
  4  5  1  0
  5  6  2  0
  5  7  1  0
  7  8  1  0
  8  9  1  0
  9 10  2  0
 10 11  1  0
 11 12  2  0
 12 13  1  0
 13 14  2  0
 14  9  1  0
M  END
>  <shape_align_shape_tanimoto>  (1) 
0.73994103505826314

>  <shape_align_color_tanimoto>  (1) 
0.12101003171774839

>  <metric>  (1) 
shape

>  <metric_score>  (1) 
0.740

>  <template_pid>  (1) 
6OVZ

>  <template_shape_score>  (1) 
0.740

>  <template_color_score>  (1) 
0.121

>  <template_combo_score>  (1) 
0.430

$$$$
6OVZ_color_pose
     RDKit          3D

 14 14  0  0  0  0  0  0  0  0999 V2000
   33.4686   47.2288    5.0814 O   0  0  0  0  0  0  0  0  0  0  0  0
   33.5487   46.0472    5.5117 C   0  0  0  0  0  0  0  0  0  0  0  0
   33.7346   45.9133    6.8920 O   0  0  0  0  0  0  0  0  0  0  0  0
   33.8179   47.0550    7.6862 N   0  0  0  0  0  0  0  0  0  0  0  0
   35.0616   47.6906    7.9529 C   0  0  0  0  0  0  0  0  0  0  0  0
   36.0886   47.1749    7.4382 O   0  0  0  0  0  0  0  0  0  0  0  0
   35.0627   48.8103    8.7436 O   0  0  0  0  0  0  0  0  0  0  0  0
   36.2851   49.4759    9.0347 C   0  0  0  0  0  0  0  0  0  0  0  0
   35.8809   50.6342    9.9120 C   0  0  0  0  0  0  0  0  0  0  0  0
   35.8306   50.5030   11.2881 C   0  0  0  0  0  0  0  0  0  0  0  0
   35.4467   51.6224   12.0315 C   0  0  0  0  0  0  0  0  0  0  0  0
   35.1282   52.8233   11.3976 C   0  0  0  0  0  0  0  0  0  0  0  0
   35.1847   52.9357   10.0128 C   0  0  0  0  0  0  0  0  0  0  0  0
   35.5685   51.8177    9.2639 C   0  0  0  0  0  0  0  0  0  0  0  0
  1  2  2  0
  2  3  1  0
  3  4  1  0
  4  5  1  0
  5  6  2  0
  5  7  1  0
  7  8  1  0
  8  9  1  0
  9 10  2  0
 10 11  1  0
 11 12  2  0
 12 13  1  0
 13 14  2  0
 14  9  1  0
M  END
>  <shape_align_shape_tanimoto>  (2) 
0.70982212186605798

>  <shape_align_color_tanimoto>  (2) 
0.15096163052804751

>  <metric>  (2) 
color

>  <metric_score>  (2) 
0.151

>  <template_pid>  (2) 
6OVZ

>  <template_shape_score>  (2) 
0.710

>  <template_color_score>  (2) 
0.151

>  <template_combo_score>  (2) 
0.430

$$$$
6OVZ_combo_pose
     RDKit          3D

 14 14  0  0  0  0  0  0  0  0999 V2000
   33.8347   47.2386    4.8942 O   0  0  0  0  0  0  0  0  0  0  0  0
   33.5013   46.0655    5.2772 C   0  0  0  0  0  0  0  0  0  0  0  0
   33.3258   45.9416    6.6650 O   0  0  0  0  0  0  0  0  0  0  0  0
   33.5502   47.1288    7.3616 N   0  0  0  0  0  0  0  0  0  0  0  0
   34.8582   47.4518    7.8499 C   0  0  0  0  0  0  0  0  0  0  0  0
   35.8356   46.6879    7.6705 O   0  0  0  0  0  0  0  0  0  0  0  0
   34.9802   48.6529    8.5295 O   0  0  0  0  0  0  0  0  0  0  0  0
   36.2242   49.0613    9.0488 C   0  0  0  0  0  0  0  0  0  0  0  0
   35.9608   50.3859    9.7029 C   0  0  0  0  0  0  0  0  0  0  0  0
   35.5947   50.4073   11.0338 C   0  0  0  0  0  0  0  0  0  0  0  0
   35.3552   51.6489   11.6199 C   0  0  0  0  0  0  0  0  0  0  0  0
   35.4912   52.7911   10.8591 C   0  0  0  0  0  0  0  0  0  0  0  0
   35.8568   52.7772    9.5282 C   0  0  0  0  0  0  0  0  0  0  0  0
   36.0970   51.5289    8.9408 C   0  0  0  0  0  0  0  0  0  0  0  0
  1  2  2  0
  2  3  1  0
  3  4  1  0
  4  5  1  0
  5  6  2  0
  5  7  1  0
  7  8  1  0
  8  9  1  0
  9 10  2  0
 10 11  1  0
 11 12  2  0
 12 13  1  0
 13 14  2  0
 14  9  1  0
M  END
>  <shape_align_shape_tanimoto>  (3) 
0.73809400518544499

>  <shape_align_color_tanimoto>  (3) 
0.14185718740256925

>  <metric>  (3) 
combo

>  <metric_score>  (3) 
0.440

>  <template_pid>  (3) 
6OVZ

>  <template_shape_score>  (3) 
0.738

>  <template_color_score>  (3) 
0.142

>  <template_combo_score>  (3) 
0.440

$$$$
