6G2C_shape_pose
     RDKit          3D

 19 21  0  0  0  0  0  0  0  0999 V2000
   20.9630   -0.5549  -25.6167 C   0  0  0  0  0  0  0  0  0  0  0  0
   21.2658    0.8733  -25.4064 C   0  0  0  0  0  0  0  0  0  0  0  0
   22.3440    1.5432  -25.7552 N   0  0  0  0  0  0  0  0  0  0  0  0
   22.2385    2.7939  -25.3965 O   0  0  0  0  0  0  0  0  0  0  0  0
   21.1083    3.0394  -24.7960 C   0  0  0  0  0  0  0  0  0  0  0  0
   20.5707    4.3118  -24.2270 C   0  0  0  0  0  0  0  0  0  0  0  0
   20.4278    1.8012  -24.7757 C   0  0  0  0  0  0  0  0  0  0  0  0
   19.0982    1.5456  -24.2331 C   0  0  0  0  0  0  0  0  0  0  0  0
   18.0209    1.7532  -25.0659 N   0  0  0  0  0  0  0  0  0  0  0  0
   16.9226    1.4755  -24.3708 C   0  0  0  0  0  0  0  0  0  0  0  0
   17.3032    1.0966  -23.1130 N   0  0  0  0  0  0  0  0  0  0  0  0
   16.2964    0.7344  -22.1342 C   0  0  0  0  0  0  0  0  0  0  0  0
   18.6522    1.1315  -23.0003 C   0  0  0  0  0  0  0  0  0  0  0  0
   19.4746    0.7903  -21.8454 C   0  0  0  0  0  0  0  0  0  0  0  0
   18.9530    0.2378  -20.6781 C   0  0  0  0  0  0  0  0  0  0  0  0
   19.7691   -0.1025  -19.5877 C   0  0  0  0  0  0  0  0  0  0  0  0
   21.1066    0.1026  -19.6432 N   0  0  0  0  0  0  0  0  0  0  0  0
   21.6488    0.6325  -20.7490 C   0  0  0  0  0  0  0  0  0  0  0  0
   20.8339    0.9732  -21.8416 C   0  0  0  0  0  0  0  0  0  0  0  0
  1  2  1  0
  2  3  2  0
  3  4  1  0
  4  5  1  0
  5  6  1  0
  5  7  2  0
  7  8  1  0
  8  9  1  0
  9 10  2  0
 10 11  1  0
 11 12  1  0
 11 13  1  0
 13 14  1  0
 14 15  2  0
 15 16  1  0
 16 17  2  0
 17 18  1  0
 18 19  2  0
  7  2  1  0
 13  8  2  0
 19 14  1  0
M  END
>  <shape_align_shape_tanimoto>  (1) 
0.58231599471070228

>  <shape_align_color_tanimoto>  (1) 
0.029599216479613579

>  <metric>  (1) 
shape

>  <metric_score>  (1) 
0.582

>  <template_pid>  (1) 
6G2C

>  <template_shape_score>  (1) 
0.582

>  <template_color_score>  (1) 
0.030

>  <template_combo_score>  (1) 
0.306

$$$$
6G2C_color_pose
     RDKit          3D

 19 21  0  0  0  0  0  0  0  0999 V2000
   16.8570   -0.5105  -24.5894 C   0  0  0  0  0  0  0  0  0  0  0  0
   16.7804    0.7269  -23.8108 C   0  0  0  0  0  0  0  0  0  0  0  0
   15.7136    1.2191  -23.1572 N   0  0  0  0  0  0  0  0  0  0  0  0
   15.9971    2.3440  -22.5633 O   0  0  0  0  0  0  0  0  0  0  0  0
   17.2681    2.6186  -22.8151 C   0  0  0  0  0  0  0  0  0  0  0  0
   18.0041    3.8202  -22.3238 C   0  0  0  0  0  0  0  0  0  0  0  0
   17.7961    1.6044  -23.6099 C   0  0  0  0  0  0  0  0  0  0  0  0
   19.1772    1.6178  -24.0609 C   0  0  0  0  0  0  0  0  0  0  0  0
   19.7118    1.9629  -25.2410 N   0  0  0  0  0  0  0  0  0  0  0  0
   21.0620    1.8265  -25.1862 C   0  0  0  0  0  0  0  0  0  0  0  0
   21.3954    1.3854  -23.9473 N   0  0  0  0  0  0  0  0  0  0  0  0
   22.7438    1.1029  -23.4385 C   0  0  0  0  0  0  0  0  0  0  0  0
   20.2573    1.2528  -23.2492 C   0  0  0  0  0  0  0  0  0  0  0  0
   20.1225    0.7938  -21.8759 C   0  0  0  0  0  0  0  0  0  0  0  0
   19.4881   -0.4289  -21.6888 C   0  0  0  0  0  0  0  0  0  0  0  0
   19.3107   -0.9427  -20.4187 C   0  0  0  0  0  0  0  0  0  0  0  0
   19.7549   -0.2550  -19.3501 N   0  0  0  0  0  0  0  0  0  0  0  0
   20.3632    0.9178  -19.5432 C   0  0  0  0  0  0  0  0  0  0  0  0
   20.5753    1.4913  -20.7795 C   0  0  0  0  0  0  0  0  0  0  0  0
  1  2  1  0
  2  3  2  0
  3  4  1  0
  4  5  1  0
  5  6  1  0
  5  7  2  0
  7  8  1  0
  8  9  1  0
  9 10  2  0
 10 11  1  0
 11 12  1  0
 11 13  1  0
 13 14  1  0
 14 15  2  0
 15 16  1  0
 16 17  2  0
 17 18  1  0
 18 19  2  0
  7  2  1  0
 13  8  2  0
 19 14  1  0
M  END
>  <shape_align_shape_tanimoto>  (2) 
0.53818393893641014

>  <shape_align_color_tanimoto>  (2) 
0.16519979637601964

>  <metric>  (2) 
color

>  <metric_score>  (2) 
0.165

>  <template_pid>  (2) 
6G2C

>  <template_shape_score>  (2) 
0.538

>  <template_color_score>  (2) 
0.165

>  <template_combo_score>  (2) 
0.352

$$$$
6G2C_combo_pose
     RDKit          3D

 19 21  0  0  0  0  0  0  0  0999 V2000
   16.8570   -0.5105  -24.5894 C   0  0  0  0  0  0  0  0  0  0  0  0
   16.7804    0.7269  -23.8108 C   0  0  0  0  0  0  0  0  0  0  0  0
   15.7136    1.2191  -23.1572 N   0  0  0  0  0  0  0  0  0  0  0  0
   15.9971    2.3440  -22.5633 O   0  0  0  0  0  0  0  0  0  0  0  0
   17.2681    2.6186  -22.8151 C   0  0  0  0  0  0  0  0  0  0  0  0
   18.0041    3.8202  -22.3238 C   0  0  0  0  0  0  0  0  0  0  0  0
   17.7961    1.6044  -23.6099 C   0  0  0  0  0  0  0  0  0  0  0  0
   19.1772    1.6178  -24.0609 C   0  0  0  0  0  0  0  0  0  0  0  0
   19.7118    1.9629  -25.2410 N   0  0  0  0  0  0  0  0  0  0  0  0
   21.0620    1.8265  -25.1862 C   0  0  0  0  0  0  0  0  0  0  0  0
   21.3954    1.3854  -23.9473 N   0  0  0  0  0  0  0  0  0  0  0  0
   22.7438    1.1029  -23.4385 C   0  0  0  0  0  0  0  0  0  0  0  0
   20.2573    1.2528  -23.2492 C   0  0  0  0  0  0  0  0  0  0  0  0
   20.1225    0.7938  -21.8759 C   0  0  0  0  0  0  0  0  0  0  0  0
   19.4881   -0.4289  -21.6888 C   0  0  0  0  0  0  0  0  0  0  0  0
   19.3107   -0.9427  -20.4187 C   0  0  0  0  0  0  0  0  0  0  0  0
   19.7549   -0.2550  -19.3501 N   0  0  0  0  0  0  0  0  0  0  0  0
   20.3632    0.9178  -19.5432 C   0  0  0  0  0  0  0  0  0  0  0  0
   20.5753    1.4913  -20.7795 C   0  0  0  0  0  0  0  0  0  0  0  0
  1  2  1  0
  2  3  2  0
  3  4  1  0
  4  5  1  0
  5  6  1  0
  5  7  2  0
  7  8  1  0
  8  9  1  0
  9 10  2  0
 10 11  1  0
 11 12  1  0
 11 13  1  0
 13 14  1  0
 14 15  2  0
 15 16  1  0
 16 17  2  0
 17 18  1  0
 18 19  2  0
  7  2  1  0
 13  8  2  0
 19 14  1  0
M  END
>  <shape_align_shape_tanimoto>  (3) 
0.53818393893641014

>  <shape_align_color_tanimoto>  (3) 
0.16519979637601964

>  <metric>  (3) 
combo

>  <metric_score>  (3) 
0.352

>  <template_pid>  (3) 
6G2C

>  <template_shape_score>  (3) 
0.538

>  <template_color_score>  (3) 
0.165

>  <template_combo_score>  (3) 
0.352

$$$$
