4BAK_shape_pose
     RDKit          3D

 34 36  0  0  0  0  0  0  0  0999 V2000
   13.3438  -17.7497   19.9155 C   0  0  0  0  0  0  0  0  0  0  0  0
   14.4839  -17.3955   20.8781 C   0  0  0  0  0  0  0  0  0  0  0  0
   15.4955  -18.5136   20.8700 C   0  0  0  0  0  0  0  0  0  0  0  0
   16.6198  -18.3005   21.7361 N   0  0  0  0  0  0  0  0  0  0  0  0
   16.4510  -18.1273   23.1278 C   0  0  0  0  0  0  0  0  0  0  0  0
   15.2721  -18.1560   23.6227 O   0  0  0  0  0  0  0  0  0  0  0  0
   17.5490  -17.9089   24.0987 C   0  0  0  0  0  0  0  0  0  0  0  0
   18.8497  -17.8816   23.6136 N   0  0  0  0  0  0  0  0  0  0  0  0
   19.5902  -16.6532   23.4507 C   0  0  1  0  0  0  0  0  0  0  0  0
   18.8362  -15.5676   22.8315 C   0  0  0  0  0  0  0  0  0  0  0  0
   17.5850  -15.5065   23.0975 O   0  0  0  0  0  0  0  0  0  0  0  0
   19.3679  -14.5748   21.9550 N   0  0  0  0  0  0  0  0  0  0  0  0
   20.6762  -14.2649   21.3518 C   0  0  0  0  0  0  0  0  0  0  0  0
   19.9581  -13.5597   20.2224 C   0  0  0  0  0  0  0  0  0  0  0  0
   18.8595  -13.4251   21.2734 C   0  0  1  0  0  0  0  0  0  0  0  0
   17.5334  -13.5028   20.6572 C   0  0  0  0  0  0  0  0  0  0  0  0
   16.8918  -14.5773   20.7543 O   0  0  0  0  0  0  0  0  0  0  0  0
   17.0374  -12.3583   19.9793 N   0  0  0  0  0  0  0  0  0  0  0  0
   15.7491  -12.2912   19.3294 C   0  0  0  0  0  0  0  0  0  0  0  0
   14.7070  -12.1082   20.3675 C   0  0  0  0  0  0  0  0  0  0  0  0
   14.0208  -13.1360   20.9658 C   0  0  0  0  0  0  0  0  0  0  0  0
   13.0850  -12.8112   21.9174 C   0  0  0  0  0  0  0  0  0  0  0  0
   12.7988  -11.5178   22.3021 C   0  0  0  0  0  0  0  0  0  0  0  0
   11.8083  -11.1755   23.3078 C   0  0  0  0  0  0  0  0  0  0  0  0
   10.6428  -11.9508   23.5450 N   0  0  0  0  0  0  0  0  0  0  0  0
   11.9782  -10.1180   24.0306 N   0  0  0  0  0  0  0  0  0  0  0  0
   13.5008  -10.4786   21.6891 C   0  0  0  0  0  0  0  0  0  0  0  0
   14.4357  -10.7923   20.7393 C   0  0  0  0  0  0  0  0  0  0  0  0
   20.3714  -16.3201   24.6919 C   0  0  0  0  0  0  0  0  0  0  0  0
   21.1834  -15.0996   24.7091 C   0  0  0  0  0  0  0  0  0  0  0  0
   20.5029  -13.8364   25.0759 C   0  0  0  0  0  0  0  0  0  0  0  0
   19.1774  -13.9323   25.7499 C   0  0  0  0  0  0  0  0  0  0  0  0
   18.8795  -15.2157   26.4320 C   0  0  0  0  0  0  0  0  0  0  0  0
   19.6525  -16.3983   26.0039 C   0  0  0  0  0  0  0  0  0  0  0  0
  1  2  1  0
  2  3  1  0
  3  4  1  0
  4  5  1  0
  5  6  2  0
  5  7  1  0
  7  8  1  0
  9  8  1  1
  9 10  1  0
 10 11  2  0
 10 12  1  0
 12 13  1  0
 13 14  1  0
 14 15  1  0
 15 16  1  6
 16 17  2  0
 16 18  1  0
 18 19  1  0
 19 20  1  0
 20 21  2  0
 21 22  1  0
 22 23  2  0
 23 24  1  0
 24 25  1  0
 24 26  2  0
 23 27  1  0
 27 28  2  0
  9 29  1  0
 29 30  1  0
 30 31  1  0
 31 32  1  0
 32 33  1  0
 33 34  1  0
 15 12  1  0
 28 20  1  0
 34 29  1  0
M  CHG  2   8   1  26   1
M  END
>  <shape_align_shape_tanimoto>  (1) 
0.69101517945169155

>  <shape_align_color_tanimoto>  (1) 
0.080953185869964486

>  <metric>  (1) 
shape

>  <metric_score>  (1) 
0.691

>  <template_pid>  (1) 
4BAK

>  <template_shape_score>  (1) 
0.691

>  <template_color_score>  (1) 
0.081

>  <template_combo_score>  (1) 
0.386

$$$$
4BAK_color_pose
     RDKit          3D

 34 36  0  0  0  0  0  0  0  0999 V2000
   13.4440   -8.1605   15.4494 C   0  0  0  0  0  0  0  0  0  0  0  0
   12.3404   -9.2007   15.5585 C   0  0  0  0  0  0  0  0  0  0  0  0
   12.9899  -10.5536   15.3818 C   0  0  0  0  0  0  0  0  0  0  0  0
   13.9883  -10.7876   16.3953 N   0  0  0  0  0  0  0  0  0  0  0  0
   13.6656  -10.8008   17.7828 C   0  0  0  0  0  0  0  0  0  0  0  0
   12.4934  -10.6088   18.1818 O   0  0  0  0  0  0  0  0  0  0  0  0
   14.8082  -11.0570   18.7325 C   0  0  0  0  0  0  0  0  0  0  0  0
   14.3818  -11.0543   20.1104 N   0  0  0  0  0  0  0  0  0  0  0  0
   14.1545  -12.3900   20.5423 C   0  0  1  0  0  0  0  0  0  0  0  0
   15.3415  -13.2618   20.6512 C   0  0  0  0  0  0  0  0  0  0  0  0
   15.0589  -14.4919   20.9425 O   0  0  0  0  0  0  0  0  0  0  0  0
   16.6889  -12.8665   20.4695 N   0  0  0  0  0  0  0  0  0  0  0  0
   17.4921  -11.7087   20.1575 C   0  0  0  0  0  0  0  0  0  0  0  0
   18.6297  -12.3475   20.9142 C   0  0  0  0  0  0  0  0  0  0  0  0
   17.9239  -13.6270   20.5342 C   0  0  1  0  0  0  0  0  0  0  0  0
   18.0009  -14.6508   21.6098 C   0  0  0  0  0  0  0  0  0  0  0  0
   17.1072  -14.8236   22.4726 O   0  0  0  0  0  0  0  0  0  0  0  0
   19.1391  -15.4675   21.6588 N   0  0  0  0  0  0  0  0  0  0  0  0
   19.3907  -16.5092   22.6274 C   0  0  0  0  0  0  0  0  0  0  0  0
   19.8209  -15.9092   23.9096 C   0  0  0  0  0  0  0  0  0  0  0  0
   21.1828  -15.6569   24.0504 C   0  0  0  0  0  0  0  0  0  0  0  0
   21.6876  -15.1005   25.2249 C   0  0  0  0  0  0  0  0  0  0  0  0
   20.8386  -14.7892   26.2731 C   0  0  0  0  0  0  0  0  0  0  0  0
   21.3398  -14.2077   27.5083 C   0  0  0  0  0  0  0  0  0  0  0  0
   22.4989  -13.3901   27.4232 N   0  0  0  0  0  0  0  0  0  0  0  0
   20.7584  -14.4243   28.6316 N   0  0  0  0  0  0  0  0  0  0  0  0
   19.4896  -15.0484   26.1116 C   0  0  0  0  0  0  0  0  0  0  0  0
   18.9765  -15.6014   24.9485 C   0  0  0  0  0  0  0  0  0  0  0  0
   13.2812  -12.4881   21.7757 C   0  0  0  0  0  0  0  0  0  0  0  0
   13.8333  -11.7933   22.9599 C   0  0  0  0  0  0  0  0  0  0  0  0
   12.8268  -11.8081   24.0862 C   0  0  0  0  0  0  0  0  0  0  0  0
   11.5534  -11.0847   23.7824 C   0  0  0  0  0  0  0  0  0  0  0  0
   11.5266  -10.7936   22.2876 C   0  0  0  0  0  0  0  0  0  0  0  0
   11.8545  -12.0769   21.5463 C   0  0  0  0  0  0  0  0  0  0  0  0
  1  2  1  0
  2  3  1  0
  3  4  1  0
  4  5  1  0
  5  6  2  0
  5  7  1  0
  7  8  1  0
  9  8  1  1
  9 10  1  0
 10 11  2  0
 10 12  1  0
 12 13  1  0
 13 14  1  0
 14 15  1  0
 15 16  1  1
 16 17  2  0
 16 18  1  0
 18 19  1  0
 19 20  1  0
 20 21  2  0
 21 22  1  0
 22 23  2  0
 23 24  1  0
 24 25  1  0
 24 26  2  0
 23 27  1  0
 27 28  2  0
  9 29  1  0
 29 30  1  0
 30 31  1  0
 31 32  1  0
 32 33  1  0
 33 34  1  0
 15 12  1  0
 28 20  1  0
 34 29  1  0
M  CHG  2   8   1  26   1
M  END
>  <shape_align_shape_tanimoto>  (2) 
0.44112273921899448

>  <shape_align_color_tanimoto>  (2) 
0.10617634481845085

>  <metric>  (2) 
color

>  <metric_score>  (2) 
0.106

>  <template_pid>  (2) 
4BAK

>  <template_shape_score>  (2) 
0.441

>  <template_color_score>  (2) 
0.106

>  <template_combo_score>  (2) 
0.274

$$$$
4BAK_combo_pose
     RDKit          3D

 34 36  0  0  0  0  0  0  0  0999 V2000
   13.3438  -17.7497   19.9155 C   0  0  0  0  0  0  0  0  0  0  0  0
   14.4839  -17.3955   20.8781 C   0  0  0  0  0  0  0  0  0  0  0  0
   15.4955  -18.5136   20.8700 C   0  0  0  0  0  0  0  0  0  0  0  0
   16.6198  -18.3005   21.7361 N   0  0  0  0  0  0  0  0  0  0  0  0
   16.4510  -18.1273   23.1278 C   0  0  0  0  0  0  0  0  0  0  0  0
   15.2721  -18.1560   23.6227 O   0  0  0  0  0  0  0  0  0  0  0  0
   17.5490  -17.9089   24.0987 C   0  0  0  0  0  0  0  0  0  0  0  0
   18.8497  -17.8816   23.6136 N   0  0  0  0  0  0  0  0  0  0  0  0
   19.5902  -16.6532   23.4507 C   0  0  1  0  0  0  0  0  0  0  0  0
   18.8362  -15.5676   22.8315 C   0  0  0  0  0  0  0  0  0  0  0  0
   17.5850  -15.5065   23.0975 O   0  0  0  0  0  0  0  0  0  0  0  0
   19.3679  -14.5748   21.9550 N   0  0  0  0  0  0  0  0  0  0  0  0
   20.6762  -14.2649   21.3518 C   0  0  0  0  0  0  0  0  0  0  0  0
   19.9581  -13.5597   20.2224 C   0  0  0  0  0  0  0  0  0  0  0  0
   18.8595  -13.4251   21.2734 C   0  0  1  0  0  0  0  0  0  0  0  0
   17.5334  -13.5028   20.6572 C   0  0  0  0  0  0  0  0  0  0  0  0
   16.8918  -14.5773   20.7543 O   0  0  0  0  0  0  0  0  0  0  0  0
   17.0374  -12.3583   19.9793 N   0  0  0  0  0  0  0  0  0  0  0  0
   15.7491  -12.2912   19.3294 C   0  0  0  0  0  0  0  0  0  0  0  0
   14.7070  -12.1082   20.3675 C   0  0  0  0  0  0  0  0  0  0  0  0
   14.0208  -13.1360   20.9658 C   0  0  0  0  0  0  0  0  0  0  0  0
   13.0850  -12.8112   21.9174 C   0  0  0  0  0  0  0  0  0  0  0  0
   12.7988  -11.5178   22.3021 C   0  0  0  0  0  0  0  0  0  0  0  0
   11.8083  -11.1755   23.3078 C   0  0  0  0  0  0  0  0  0  0  0  0
   10.6428  -11.9508   23.5450 N   0  0  0  0  0  0  0  0  0  0  0  0
   11.9782  -10.1180   24.0306 N   0  0  0  0  0  0  0  0  0  0  0  0
   13.5008  -10.4786   21.6891 C   0  0  0  0  0  0  0  0  0  0  0  0
   14.4357  -10.7923   20.7393 C   0  0  0  0  0  0  0  0  0  0  0  0
   20.3714  -16.3201   24.6919 C   0  0  0  0  0  0  0  0  0  0  0  0
   21.1834  -15.0996   24.7091 C   0  0  0  0  0  0  0  0  0  0  0  0
   20.5029  -13.8364   25.0759 C   0  0  0  0  0  0  0  0  0  0  0  0
   19.1774  -13.9323   25.7499 C   0  0  0  0  0  0  0  0  0  0  0  0
   18.8795  -15.2157   26.4320 C   0  0  0  0  0  0  0  0  0  0  0  0
   19.6525  -16.3983   26.0039 C   0  0  0  0  0  0  0  0  0  0  0  0
  1  2  1  0
  2  3  1  0
  3  4  1  0
  4  5  1  0
  5  6  2  0
  5  7  1  0
  7  8  1  0
  9  8  1  1
  9 10  1  0
 10 11  2  0
 10 12  1  0
 12 13  1  0
 13 14  1  0
 14 15  1  0
 15 16  1  6
 16 17  2  0
 16 18  1  0
 18 19  1  0
 19 20  1  0
 20 21  2  0
 21 22  1  0
 22 23  2  0
 23 24  1  0
 24 25  1  0
 24 26  2  0
 23 27  1  0
 27 28  2  0
  9 29  1  0
 29 30  1  0
 30 31  1  0
 31 32  1  0
 32 33  1  0
 33 34  1  0
 15 12  1  0
 28 20  1  0
 34 29  1  0
M  CHG  2   8   1  26   1
M  END
>  <shape_align_shape_tanimoto>  (3) 
0.69101517945169155

>  <shape_align_color_tanimoto>  (3) 
0.080953185869964486

>  <metric>  (3) 
combo

>  <metric_score>  (3) 
0.386

>  <template_pid>  (3) 
4BAK

>  <template_shape_score>  (3) 
0.691

>  <template_color_score>  (3) 
0.081

>  <template_combo_score>  (3) 
0.386

$$$$
