3LQ4_shape_pose
     RDKit          3D

 26 27  0  0  0  0  0  0  0  0999 V2000
  -10.5140   50.7908   46.1371 C   0  0  0  0  0  0  0  0  0  0  0  0
  -10.4920   51.2618   47.5466 C   0  0  0  0  0  0  0  0  0  0  0  0
   -9.4950   50.9703   48.3885 N   0  0  0  0  0  0  0  0  0  0  0  0
   -9.4578   51.3879   49.6652 C   0  0  0  0  0  0  0  0  0  0  0  0
  -10.5034   52.1767   50.1826 C   0  0  0  0  0  0  0  0  0  0  0  0
  -10.3879   52.5912   51.5613 C   0  0  0  0  0  0  0  0  0  0  0  0
  -11.3555   53.6148   52.0105 N   0  0  0  0  0  0  0  0  0  0  0  0
  -10.9897   54.9185   51.9051 C   0  0  0  0  0  0  0  0  0  0  0  0
  -12.4211   55.8678   52.5785 S   0  0  0  0  0  0  0  0  0  0  0  0
  -13.3328   54.3865   52.9146 C   0  0  0  0  0  0  0  0  0  0  0  0
  -14.6863   54.5429   53.4351 C   0  0  0  0  0  0  0  0  0  0  0  0
  -15.6502   54.6239   52.2716 C   0  0  0  0  0  0  0  0  0  0  0  0
  -15.6785   53.5415   51.4420 O   0  0  0  0  0  0  0  0  0  0  0  0
  -16.4339   53.8327   49.9637 P   0  0  1  0  0  5  0  0  0  0  0  0
  -16.1908   52.6494   49.0669 O   0  0  0  0  0  0  0  0  0  0  0  0
  -18.0987   53.9479   50.2440 O   0  0  0  0  0  0  0  0  0  0  0  0
  -15.9109   55.2888   49.2801 O   0  0  0  0  0  0  0  0  0  0  0  0
  -15.9303   55.2992   47.6141 P   0  0  0  0  0  0  0  0  0  0  0  0
  -14.6146   54.9070   46.9810 O   0  0  0  0  0  0  0  0  0  0  0  0
  -17.1352   54.3122   46.9455 O   0  0  0  0  0  0  0  0  0  0  0  0
  -16.2620   56.8940   47.1133 O   0  0  0  0  0  0  0  0  0  0  0  0
  -12.5406   53.3677   52.5230 C   0  0  0  0  0  0  0  0  0  0  0  0
  -12.9989   51.9167   52.7134 C   0  0  0  0  0  0  0  0  0  0  0  0
  -11.5116   52.4601   49.2964 C   0  0  0  0  0  0  0  0  0  0  0  0
  -12.6413   53.2350   49.6639 N   0  0  0  0  0  0  0  0  0  0  0  0
  -11.4995   52.0094   48.0095 N   0  0  0  0  0  0  0  0  0  0  0  0
  1  2  1  0
  2  3  2  0
  3  4  1  0
  4  5  2  0
  5  6  1  0
  6  7  1  0
  7  8  2  0
  8  9  1  0
  9 10  1  0
 10 11  1  0
 11 12  1  0
 12 13  1  0
 13 14  1  0
 14 15  2  0
 14 16  1  1
 14 17  1  0
 17 18  1  0
 18 19  2  0
 18 20  1  0
 18 21  1  0
 10 22  2  0
 22 23  1  0
  5 24  1  0
 24 25  1  0
 24 26  2  0
 26  2  1  0
 22  7  1  0
M  CHG  1   7   1
M  END
>  <shape_align_shape_tanimoto>  (1) 
0.63721176855299488

>  <shape_align_color_tanimoto>  (1) 
0.070277856973549949

>  <metric>  (1) 
shape

>  <metric_score>  (1) 
0.637

>  <template_pid>  (1) 
3LQ4

>  <template_shape_score>  (1) 
0.637

>  <template_color_score>  (1) 
0.070

>  <template_combo_score>  (1) 
0.354

$$$$
3LQ4_color_pose
     RDKit          3D

 26 27  0  0  0  0  0  0  0  0999 V2000
   -7.3105   54.4386   44.7475 C   0  0  0  0  0  0  0  0  0  0  0  0
   -7.7325   53.7397   45.9877 C   0  0  0  0  0  0  0  0  0  0  0  0
   -8.5543   52.6791   45.9089 N   0  0  0  0  0  0  0  0  0  0  0  0
   -8.9705   52.0009   46.9955 C   0  0  0  0  0  0  0  0  0  0  0  0
   -8.5565   52.3779   48.2910 C   0  0  0  0  0  0  0  0  0  0  0  0
   -9.0985   51.5871   49.3978 C   0  0  0  0  0  0  0  0  0  0  0  0
  -10.3089   52.2034   50.0247 N   0  0  0  0  0  0  0  0  0  0  0  0
  -11.4680   51.9702   49.3614 C   0  0  0  0  0  0  0  0  0  0  0  0
  -12.7723   52.8841   50.3265 S   0  0  0  0  0  0  0  0  0  0  0  0
  -11.5350   53.4578   51.5086 C   0  0  0  0  0  0  0  0  0  0  0  0
  -11.8380   54.3293   52.6937 C   0  0  0  0  0  0  0  0  0  0  0  0
  -13.3326   54.6406   52.7058 C   0  0  0  0  0  0  0  0  0  0  0  0
  -14.0600   53.4584   52.7925 O   0  0  0  0  0  0  0  0  0  0  0  0
  -15.6883   53.6468   52.4501 P   0  0  1  0  0  5  0  0  0  0  0  0
  -16.3054   52.3561   51.9309 O   0  0  0  0  0  0  0  0  0  0  0  0
  -16.5061   54.0645   53.8621 O   0  0  0  0  0  0  0  0  0  0  0  0
  -15.8468   54.8916   51.3138 O   0  0  0  0  0  0  0  0  0  0  0  0
  -16.3826   54.3647   49.8215 P   0  0  0  0  0  0  0  0  0  0  0  0
  -17.7951   54.8804   49.5297 O   0  0  0  0  0  0  0  0  0  0  0  0
  -15.4172   54.9161   48.5415 O   0  0  0  0  0  0  0  0  0  0  0  0
  -16.3566   52.6680   49.7357 O   0  0  0  0  0  0  0  0  0  0  0  0
  -10.3160   52.9337   51.0873 C   0  0  0  0  0  0  0  0  0  0  0  0
   -9.1103   53.2515   51.9567 C   0  0  0  0  0  0  0  0  0  0  0  0
   -7.7241   53.4538   48.3474 C   0  0  0  0  0  0  0  0  0  0  0  0
   -7.2009   53.9331   49.5587 N   0  0  0  0  0  0  0  0  0  0  0  0
   -7.3276   54.1129   47.2151 N   0  0  0  0  0  0  0  0  0  0  0  0
  1  2  1  0
  2  3  2  0
  3  4  1  0
  4  5  2  0
  5  6  1  0
  6  7  1  0
  7  8  2  0
  8  9  1  0
  9 10  1  0
 10 11  1  0
 11 12  1  0
 12 13  1  0
 13 14  1  0
 14 15  2  0
 14 16  1  1
 14 17  1  0
 17 18  1  0
 18 19  2  0
 18 20  1  0
 18 21  1  0
 10 22  2  0
 22 23  1  0
  5 24  1  0
 24 25  1  0
 24 26  2  0
 26  2  1  0
 22  7  1  0
M  CHG  1   7   1
M  END
>  <shape_align_shape_tanimoto>  (2) 
0.4998926471759953

>  <shape_align_color_tanimoto>  (2) 
0.085385135483295946

>  <metric>  (2) 
color

>  <metric_score>  (2) 
0.085

>  <template_pid>  (2) 
3LQ4

>  <template_shape_score>  (2) 
0.500

>  <template_color_score>  (2) 
0.085

>  <template_combo_score>  (2) 
0.293

$$$$
3LQ4_combo_pose
     RDKit          3D

 26 27  0  0  0  0  0  0  0  0999 V2000
  -10.5140   50.7908   46.1371 C   0  0  0  0  0  0  0  0  0  0  0  0
  -10.4920   51.2618   47.5466 C   0  0  0  0  0  0  0  0  0  0  0  0
   -9.4950   50.9703   48.3885 N   0  0  0  0  0  0  0  0  0  0  0  0
   -9.4578   51.3879   49.6652 C   0  0  0  0  0  0  0  0  0  0  0  0
  -10.5034   52.1767   50.1826 C   0  0  0  0  0  0  0  0  0  0  0  0
  -10.3879   52.5912   51.5613 C   0  0  0  0  0  0  0  0  0  0  0  0
  -11.3555   53.6148   52.0105 N   0  0  0  0  0  0  0  0  0  0  0  0
  -10.9897   54.9185   51.9051 C   0  0  0  0  0  0  0  0  0  0  0  0
  -12.4211   55.8678   52.5785 S   0  0  0  0  0  0  0  0  0  0  0  0
  -13.3328   54.3865   52.9146 C   0  0  0  0  0  0  0  0  0  0  0  0
  -14.6863   54.5429   53.4351 C   0  0  0  0  0  0  0  0  0  0  0  0
  -15.6502   54.6239   52.2716 C   0  0  0  0  0  0  0  0  0  0  0  0
  -15.6785   53.5415   51.4420 O   0  0  0  0  0  0  0  0  0  0  0  0
  -16.4339   53.8327   49.9637 P   0  0  1  0  0  5  0  0  0  0  0  0
  -16.1908   52.6494   49.0669 O   0  0  0  0  0  0  0  0  0  0  0  0
  -18.0987   53.9479   50.2440 O   0  0  0  0  0  0  0  0  0  0  0  0
  -15.9109   55.2888   49.2801 O   0  0  0  0  0  0  0  0  0  0  0  0
  -15.9303   55.2992   47.6141 P   0  0  0  0  0  0  0  0  0  0  0  0
  -14.6146   54.9070   46.9810 O   0  0  0  0  0  0  0  0  0  0  0  0
  -17.1352   54.3122   46.9455 O   0  0  0  0  0  0  0  0  0  0  0  0
  -16.2620   56.8940   47.1133 O   0  0  0  0  0  0  0  0  0  0  0  0
  -12.5406   53.3677   52.5230 C   0  0  0  0  0  0  0  0  0  0  0  0
  -12.9989   51.9167   52.7134 C   0  0  0  0  0  0  0  0  0  0  0  0
  -11.5116   52.4601   49.2964 C   0  0  0  0  0  0  0  0  0  0  0  0
  -12.6413   53.2350   49.6639 N   0  0  0  0  0  0  0  0  0  0  0  0
  -11.4995   52.0094   48.0095 N   0  0  0  0  0  0  0  0  0  0  0  0
  1  2  1  0
  2  3  2  0
  3  4  1  0
  4  5  2  0
  5  6  1  0
  6  7  1  0
  7  8  2  0
  8  9  1  0
  9 10  1  0
 10 11  1  0
 11 12  1  0
 12 13  1  0
 13 14  1  0
 14 15  2  0
 14 16  1  1
 14 17  1  0
 17 18  1  0
 18 19  2  0
 18 20  1  0
 18 21  1  0
 10 22  2  0
 22 23  1  0
  5 24  1  0
 24 25  1  0
 24 26  2  0
 26  2  1  0
 22  7  1  0
M  CHG  1   7   1
M  END
>  <shape_align_shape_tanimoto>  (3) 
0.63721176855299488

>  <shape_align_color_tanimoto>  (3) 
0.070277856973549949

>  <metric>  (3) 
combo

>  <metric_score>  (3) 
0.354

>  <template_pid>  (3) 
3LQ4

>  <template_shape_score>  (3) 
0.637

>  <template_color_score>  (3) 
0.070

>  <template_combo_score>  (3) 
0.354

$$$$
