4XTT_shape_pose
     RDKit          3D

 44 50  0  0  0  0  0  0  0  0999 V2000
   46.4545   12.1635   -9.7396 N   0  0  0  0  0  0  0  0  0  0  0  0
   45.9213   11.1241   -8.9248 C   0  0  0  0  0  0  0  0  0  0  0  0
   46.5895   10.5827   -7.8884 N   0  0  0  0  0  0  0  0  0  0  0  0
   46.0351    9.5878   -7.1375 C   0  0  0  0  0  0  0  0  0  0  0  0
   44.7940    9.1107   -7.4086 N   0  0  0  0  0  0  0  0  0  0  0  0
   44.0857    9.6115   -8.4258 C   0  0  0  0  0  0  0  0  0  0  0  0
   44.6590   10.6326   -9.1936 C   0  0  0  0  0  0  0  0  0  0  0  0
   43.7505   10.9460  -10.1310 N   0  0  0  0  0  0  0  0  0  0  0  0
   42.6667   10.1657   -9.9621 C   0  0  0  0  0  0  0  0  0  0  0  0
   42.8638    9.3283   -8.9006 N   0  0  0  0  0  0  0  0  0  0  0  0
   41.9060    8.3552   -8.4352 C   0  0  2  0  0  0  0  0  0  0  0  0
   41.3902    8.6574   -7.1770 O   0  0  0  0  0  0  0  0  0  0  0  0
   40.9254    7.4510   -6.6507 C   0  0  2  0  0  0  0  0  0  0  0  0
   40.7000    7.6097   -5.1912 C   0  0  0  0  0  0  0  0  0  0  0  0
   39.3202    7.7782   -4.9940 O   0  0  0  0  0  0  0  0  0  0  0  0
   38.9947    7.8852   -3.3511 P   0  0  1  0  0  5  0  0  0  0  0  0
   40.2735    7.7715   -2.5547 O   0  0  0  0  0  0  0  0  0  0  0  0
   38.2894    9.4168   -3.0533 O   0  0  0  0  0  0  0  0  0  0  0  0
   37.8566    6.7418   -2.8946 O   0  0  0  0  0  0  0  0  0  0  0  0
   38.1261    5.4596   -3.3696 C   0  0  1  0  0  0  0  0  0  0  0  0
   37.6345    4.3997   -2.4128 C   0  0  1  0  0  0  0  0  0  0  0  0
   36.8418    5.0612   -1.4463 O   0  0  0  0  0  0  0  0  0  0  0  0
   36.8016    3.5232   -3.2693 C   0  0  2  0  0  0  0  0  0  0  0  0
   37.3633    2.2197   -3.5516 N   0  0  0  0  0  0  0  0  0  0  0  0
   36.6076    1.1822   -3.9849 C   0  0  0  0  0  0  0  0  0  0  0  0
   37.3966    0.1246   -4.1560 N   0  0  0  0  0  0  0  0  0  0  0  0
   38.6474    0.4605   -3.8412 C   0  0  0  0  0  0  0  0  0  0  0  0
   39.8292   -0.2497   -3.8430 C   0  0  0  0  0  0  0  0  0  0  0  0
   39.7969   -1.6100   -4.2445 N   0  0  0  0  0  0  0  0  0  0  0  0
   40.9511    0.3899   -3.4622 N   0  0  0  0  0  0  0  0  0  0  0  0
   40.9209    1.7020   -3.0854 C   0  0  0  0  0  0  0  0  0  0  0  0
   39.7481    2.3783   -3.0918 N   0  0  0  0  0  0  0  0  0  0  0  0
   38.6222    1.7859   -3.4596 C   0  0  0  0  0  0  0  0  0  0  0  0
   36.4378    4.2134   -4.3967 O   0  0  0  0  0  0  0  0  0  0  0  0
   37.3371    5.2191   -4.6195 C   0  0  2  0  0  0  0  0  0  0  0  0
   38.2063    4.9263   -5.8148 C   0  0  0  0  0  0  0  0  0  0  0  0
   39.5186    4.7154   -5.4077 O   0  0  0  0  0  0  0  0  0  0  0  0
   40.5623    4.4509   -6.6826 P   0  0  1  0  0  5  0  0  0  0  0  0
   40.8918    2.9518   -6.6266 O   0  0  0  0  0  0  0  0  0  0  0  0
   39.6523    4.6122   -8.1203 O   0  0  0  0  0  0  0  0  0  0  0  0
   41.9836    5.2481   -6.6747 O   0  0  0  0  0  0  0  0  0  0  0  0
   42.0840    6.5536   -6.9349 C   0  0  1  0  0  0  0  0  0  0  0  0
   42.4942    6.9537   -8.3138 C   0  0  1  0  0  0  0  0  0  0  0  0
   42.0393    6.1196   -9.3192 O   0  0  0  0  0  0  0  0  0  0  0  0
  1  2  1  0
  2  3  2  0
  3  4  1  0
  4  5  2  0
  5  6  1  0
  6  7  2  0
  7  8  1  0
  8  9  2  0
  9 10  1  0
 11 10  1  1
 11 12  1  0
 12 13  1  0
 13 14  1  1
 14 15  1  0
 15 16  1  0
 16 17  2  0
 16 18  1  6
 16 19  1  0
 20 19  1  1
 20 21  1  0
 21 22  1  1
 21 23  1  0
 23 24  1  6
 24 25  1  0
 25 26  2  0
 26 27  1  0
 27 28  2  0
 28 29  1  0
 28 30  1  0
 30 31  2  0
 31 32  1  0
 32 33  2  0
 23 34  1  0
 34 35  1  0
 35 36  1  6
 36 37  1  0
 37 38  1  0
 38 39  2  0
 38 40  1  6
 38 41  1  0
 42 41  1  6
 42 43  1  0
 43 44  1  6
  7  2  1  0
 43 11  1  0
 10  6  1  0
 42 13  1  0
 35 20  1  0
 33 24  1  0
 33 27  1  0
M  END
>  <shape_align_shape_tanimoto>  (1) 
0.59651850215105517

>  <shape_align_color_tanimoto>  (1) 
0.093115756833912572

>  <metric>  (1) 
shape

>  <metric_score>  (1) 
0.597

>  <template_pid>  (1) 
4XTT

>  <template_shape_score>  (1) 
0.597

>  <template_color_score>  (1) 
0.093

>  <template_combo_score>  (1) 
0.345

$$$$
4XTT_color_pose
     RDKit          3D

 44 50  0  0  0  0  0  0  0  0999 V2000
   35.3857    0.6534   -2.9858 N   0  0  0  0  0  0  0  0  0  0  0  0
   35.9354    1.9514   -2.7457 C   0  0  0  0  0  0  0  0  0  0  0  0
   35.4788    2.7697   -1.7776 N   0  0  0  0  0  0  0  0  0  0  0  0
   36.0181    3.9707   -1.5862 C   0  0  0  0  0  0  0  0  0  0  0  0
   37.0489    4.4513   -2.3382 N   0  0  0  0  0  0  0  0  0  0  0  0
   37.5409    3.6860   -3.3099 C   0  0  0  0  0  0  0  0  0  0  0  0
   36.9863    2.4438   -3.5111 C   0  0  0  0  0  0  0  0  0  0  0  0
   37.6198    1.8344   -4.5311 N   0  0  0  0  0  0  0  0  0  0  0  0
   38.5729    2.6866   -4.9761 C   0  0  0  0  0  0  0  0  0  0  0  0
   38.5348    3.8242   -4.2367 N   0  0  0  0  0  0  0  0  0  0  0  0
   39.4007    4.9967   -4.3947 C   0  0  2  0  0  0  0  0  0  0  0  0
   38.8037    5.9157   -5.2514 O   0  0  0  0  0  0  0  0  0  0  0  0
   39.9108    6.6099   -5.7345 C   0  0  2  0  0  0  0  0  0  0  0  0
   39.6051    7.7868   -6.5432 C   0  0  0  0  0  0  0  0  0  0  0  0
   40.4098    8.7637   -6.8661 O   0  0  0  0  0  0  0  0  0  0  0  0
   40.1363    9.9702   -7.8958 P   0  0  1  0  0  5  0  0  0  0  0  0
   38.6499   10.2429   -8.1871 O   0  0  0  0  0  0  0  0  0  0  0  0
   40.6031   11.4241   -7.0959 O   0  0  0  0  0  0  0  0  0  0  0  0
   40.8982   10.0450   -9.3431 O   0  0  0  0  0  0  0  0  0  0  0  0
   42.1644    9.5415   -9.5275 C   0  0  1  0  0  0  0  0  0  0  0  0
   43.1370   10.6457   -9.0859 C   0  0  1  0  0  0  0  0  0  0  0  0
   42.4971   11.8664   -8.9120 O   0  0  0  0  0  0  0  0  0  0  0  0
   43.6156   10.0984   -7.7881 C   0  0  2  0  0  0  0  0  0  0  0  0
   45.0492    9.9355   -7.6900 N   0  0  0  0  0  0  0  0  0  0  0  0
   45.8043   10.0694   -6.5603 C   0  0  0  0  0  0  0  0  0  0  0  0
   47.0881    9.8513   -6.8224 N   0  0  0  0  0  0  0  0  0  0  0  0
   47.2226    9.5694   -8.1168 C   0  0  0  0  0  0  0  0  0  0  0  0
   48.3269    9.2671   -8.9045 C   0  0  0  0  0  0  0  0  0  0  0  0
   49.6198    9.2197   -8.3206 N   0  0  0  0  0  0  0  0  0  0  0  0
   48.1270    9.0233  -10.2260 N   0  0  0  0  0  0  0  0  0  0  0  0
   46.8786    9.0789  -10.7370 C   0  0  0  0  0  0  0  0  0  0  0  0
   45.8132    9.3747   -9.9568 N   0  0  0  0  0  0  0  0  0  0  0  0
   45.9444    9.6252   -8.6463 C   0  0  0  0  0  0  0  0  0  0  0  0
   42.9136    8.9552   -7.5017 O   0  0  0  0  0  0  0  0  0  0  0  0
   42.4854    8.3702   -8.6875 C   0  0  2  0  0  0  0  0  0  0  0  0
   43.3776    7.2949   -9.1718 C   0  0  0  0  0  0  0  0  0  0  0  0
   42.6419    6.0734   -9.2468 O   0  0  0  0  0  0  0  0  0  0  0  0
   42.8116    5.1920   -7.8269 P   0  0  1  0  0  5  0  0  0  0  0  0
   42.1917    3.8347   -8.0690 O   0  0  0  0  0  0  0  0  0  0  0  0
   44.4302    4.9191   -7.4159 O   0  0  0  0  0  0  0  0  0  0  0  0
   42.0534    5.8607   -6.5057 O   0  0  0  0  0  0  0  0  0  0  0  0
   40.7797    5.5190   -6.2218 C   0  0  1  0  0  0  0  0  0  0  0  0
   40.7342    4.6363   -4.9523 C   0  0  1  0  0  0  0  0  0  0  0  0
   41.8001    4.9404   -4.1156 O   0  0  0  0  0  0  0  0  0  0  0  0
  1  2  1  0
  2  3  2  0
  3  4  1  0
  4  5  2  0
  5  6  1  0
  6  7  2  0
  7  8  1  0
  8  9  2  0
  9 10  1  0
 11 10  1  6
 11 12  1  0
 12 13  1  0
 13 14  1  6
 14 15  1  0
 15 16  1  0
 16 17  2  0
 16 18  1  1
 16 19  1  0
 20 19  1  1
 20 21  1  0
 21 22  1  1
 21 23  1  0
 23 24  1  6
 24 25  1  0
 25 26  2  0
 26 27  1  0
 27 28  2  0
 28 29  1  0
 28 30  1  0
 30 31  2  0
 31 32  1  0
 32 33  2  0
 23 34  1  0
 34 35  1  0
 35 36  1  6
 36 37  1  0
 37 38  1  0
 38 39  2  0
 38 40  1  1
 38 41  1  0
 42 41  1  1
 42 43  1  0
 43 44  1  1
  7  2  1  0
 43 11  1  0
 10  6  1  0
 42 13  1  0
 35 20  1  0
 33 24  1  0
 33 27  1  0
M  END
>  <shape_align_shape_tanimoto>  (2) 
0.50085058107993474

>  <shape_align_color_tanimoto>  (2) 
0.12559721891796138

>  <metric>  (2) 
color

>  <metric_score>  (2) 
0.126

>  <template_pid>  (2) 
4XTT

>  <template_shape_score>  (2) 
0.501

>  <template_color_score>  (2) 
0.126

>  <template_combo_score>  (2) 
0.313

$$$$
4XTT_combo_pose
     RDKit          3D

 44 50  0  0  0  0  0  0  0  0999 V2000
   46.4545   12.1635   -9.7396 N   0  0  0  0  0  0  0  0  0  0  0  0
   45.9213   11.1241   -8.9248 C   0  0  0  0  0  0  0  0  0  0  0  0
   46.5895   10.5827   -7.8884 N   0  0  0  0  0  0  0  0  0  0  0  0
   46.0351    9.5878   -7.1375 C   0  0  0  0  0  0  0  0  0  0  0  0
   44.7940    9.1107   -7.4086 N   0  0  0  0  0  0  0  0  0  0  0  0
   44.0857    9.6115   -8.4258 C   0  0  0  0  0  0  0  0  0  0  0  0
   44.6590   10.6326   -9.1936 C   0  0  0  0  0  0  0  0  0  0  0  0
   43.7505   10.9460  -10.1310 N   0  0  0  0  0  0  0  0  0  0  0  0
   42.6667   10.1657   -9.9621 C   0  0  0  0  0  0  0  0  0  0  0  0
   42.8638    9.3283   -8.9006 N   0  0  0  0  0  0  0  0  0  0  0  0
   41.9060    8.3552   -8.4352 C   0  0  2  0  0  0  0  0  0  0  0  0
   41.3902    8.6574   -7.1770 O   0  0  0  0  0  0  0  0  0  0  0  0
   40.9254    7.4510   -6.6507 C   0  0  2  0  0  0  0  0  0  0  0  0
   40.7000    7.6097   -5.1912 C   0  0  0  0  0  0  0  0  0  0  0  0
   39.3202    7.7782   -4.9940 O   0  0  0  0  0  0  0  0  0  0  0  0
   38.9947    7.8852   -3.3511 P   0  0  1  0  0  5  0  0  0  0  0  0
   40.2735    7.7715   -2.5547 O   0  0  0  0  0  0  0  0  0  0  0  0
   38.2894    9.4168   -3.0533 O   0  0  0  0  0  0  0  0  0  0  0  0
   37.8566    6.7418   -2.8946 O   0  0  0  0  0  0  0  0  0  0  0  0
   38.1261    5.4596   -3.3696 C   0  0  1  0  0  0  0  0  0  0  0  0
   37.6345    4.3997   -2.4128 C   0  0  1  0  0  0  0  0  0  0  0  0
   36.8418    5.0612   -1.4463 O   0  0  0  0  0  0  0  0  0  0  0  0
   36.8016    3.5232   -3.2693 C   0  0  2  0  0  0  0  0  0  0  0  0
   37.3633    2.2197   -3.5516 N   0  0  0  0  0  0  0  0  0  0  0  0
   36.6076    1.1822   -3.9849 C   0  0  0  0  0  0  0  0  0  0  0  0
   37.3966    0.1246   -4.1560 N   0  0  0  0  0  0  0  0  0  0  0  0
   38.6474    0.4605   -3.8412 C   0  0  0  0  0  0  0  0  0  0  0  0
   39.8292   -0.2497   -3.8430 C   0  0  0  0  0  0  0  0  0  0  0  0
   39.7969   -1.6100   -4.2445 N   0  0  0  0  0  0  0  0  0  0  0  0
   40.9511    0.3899   -3.4622 N   0  0  0  0  0  0  0  0  0  0  0  0
   40.9209    1.7020   -3.0854 C   0  0  0  0  0  0  0  0  0  0  0  0
   39.7481    2.3783   -3.0918 N   0  0  0  0  0  0  0  0  0  0  0  0
   38.6222    1.7859   -3.4596 C   0  0  0  0  0  0  0  0  0  0  0  0
   36.4378    4.2134   -4.3967 O   0  0  0  0  0  0  0  0  0  0  0  0
   37.3371    5.2191   -4.6195 C   0  0  2  0  0  0  0  0  0  0  0  0
   38.2063    4.9263   -5.8148 C   0  0  0  0  0  0  0  0  0  0  0  0
   39.5186    4.7154   -5.4077 O   0  0  0  0  0  0  0  0  0  0  0  0
   40.5623    4.4509   -6.6826 P   0  0  1  0  0  5  0  0  0  0  0  0
   40.8918    2.9518   -6.6266 O   0  0  0  0  0  0  0  0  0  0  0  0
   39.6523    4.6122   -8.1203 O   0  0  0  0  0  0  0  0  0  0  0  0
   41.9836    5.2481   -6.6747 O   0  0  0  0  0  0  0  0  0  0  0  0
   42.0840    6.5536   -6.9349 C   0  0  1  0  0  0  0  0  0  0  0  0
   42.4942    6.9537   -8.3138 C   0  0  1  0  0  0  0  0  0  0  0  0
   42.0393    6.1196   -9.3192 O   0  0  0  0  0  0  0  0  0  0  0  0
  1  2  1  0
  2  3  2  0
  3  4  1  0
  4  5  2  0
  5  6  1  0
  6  7  2  0
  7  8  1  0
  8  9  2  0
  9 10  1  0
 11 10  1  1
 11 12  1  0
 12 13  1  0
 13 14  1  1
 14 15  1  0
 15 16  1  0
 16 17  2  0
 16 18  1  6
 16 19  1  0
 20 19  1  1
 20 21  1  0
 21 22  1  1
 21 23  1  0
 23 24  1  6
 24 25  1  0
 25 26  2  0
 26 27  1  0
 27 28  2  0
 28 29  1  0
 28 30  1  0
 30 31  2  0
 31 32  1  0
 32 33  2  0
 23 34  1  0
 34 35  1  0
 35 36  1  6
 36 37  1  0
 37 38  1  0
 38 39  2  0
 38 40  1  6
 38 41  1  0
 42 41  1  6
 42 43  1  0
 43 44  1  6
  7  2  1  0
 43 11  1  0
 10  6  1  0
 42 13  1  0
 35 20  1  0
 33 24  1  0
 33 27  1  0
M  END
>  <shape_align_shape_tanimoto>  (3) 
0.59651850215105517

>  <shape_align_color_tanimoto>  (3) 
0.093115756833912572

>  <metric>  (3) 
combo

>  <metric_score>  (3) 
0.345

>  <template_pid>  (3) 
4XTT

>  <template_shape_score>  (3) 
0.597

>  <template_color_score>  (3) 
0.093

>  <template_combo_score>  (3) 
0.345

$$$$
