4C37_shape_pose
     RDKit          3D

 18 20  0  0  0  0  0  0  0  0999 V2000
  -13.1041   56.2872   -5.1282 C   0  0  0  0  0  0  0  0  0  0  0  0
  -14.6141   56.1455   -5.2731 C   0  0  0  0  0  0  0  0  0  0  0  0
  -15.2422   57.4312   -5.2644 N   0  0  0  0  0  0  0  0  0  0  0  0
  -15.7068   58.1344   -4.2168 C   0  0  0  0  0  0  0  0  0  0  0  0
  -15.6756   57.7391   -2.8245 C   0  0  0  0  0  0  0  0  0  0  0  0
  -15.1897   56.6095   -2.2631 N   0  0  0  0  0  0  0  0  0  0  0  0
  -15.3723   56.6735   -0.9591 O   0  0  0  0  0  0  0  0  0  0  0  0
  -15.9470   57.7710   -0.6197 N   0  0  0  0  0  0  0  0  0  0  0  0
  -16.1593   58.4776   -1.7599 C   0  0  0  0  0  0  0  0  0  0  0  0
  -16.7785   59.7566   -1.8009 N   0  0  0  0  0  0  0  0  0  0  0  0
  -16.2266   59.3010   -4.6409 N   0  0  0  0  0  0  0  0  0  0  0  0
  -16.1032   59.3643   -5.9703 C   0  0  0  0  0  0  0  0  0  0  0  0
  -16.4613   60.3218   -6.9090 C   0  0  0  0  0  0  0  0  0  0  0  0
  -16.1809   60.0556   -8.2064 N   0  0  0  0  0  0  0  0  0  0  0  0
  -15.5855   58.9342   -8.6238 C   0  0  0  0  0  0  0  0  0  0  0  0
  -15.1971   58.5739  -10.4556 Br  0  0  0  0  0  0  0  0  0  0  0  0
  -15.2335   57.9896   -7.6865 C   0  0  0  0  0  0  0  0  0  0  0  0
  -15.4845   58.1842   -6.3413 C   0  0  0  0  0  0  0  0  0  0  0  0
  1  2  1  0
  2  3  1  0
  3  4  1  0
  4  5  1  0
  5  6  2  0
  6  7  1  0
  7  8  1  0
  8  9  2  0
  9 10  1  0
  4 11  2  0
 11 12  1  0
 12 13  2  0
 13 14  1  0
 14 15  2  0
 15 16  1  0
 15 17  1  0
 17 18  2  0
 18  3  1  0
  9  5  1  0
 18 12  1  0
M  END
>  <shape_align_shape_tanimoto>  (1) 
0.20784886371995179

>  <shape_align_color_tanimoto>  (1) 
0.0016173015422194148

>  <metric>  (1) 
shape

>  <metric_score>  (1) 
0.208

>  <template_pid>  (1) 
4C37

>  <template_shape_score>  (1) 
0.208

>  <template_color_score>  (1) 
0.002

>  <template_combo_score>  (1) 
0.105

$$$$
4C37_color_pose
     RDKit          3D

 18 20  0  0  0  0  0  0  0  0999 V2000
  -16.1164   57.6507   -2.8320 C   0  0  0  0  0  0  0  0  0  0  0  0
  -16.1902   56.8066   -4.0834 C   0  0  0  0  0  0  0  0  0  0  0  0
  -15.2671   57.2432   -5.0998 N   0  0  0  0  0  0  0  0  0  0  0  0
  -13.9967   56.8385   -5.2814 C   0  0  0  0  0  0  0  0  0  0  0  0
  -13.3086   55.8539   -4.4534 C   0  0  0  0  0  0  0  0  0  0  0  0
  -13.8084   55.1954   -3.3922 N   0  0  0  0  0  0  0  0  0  0  0  0
  -12.8963   54.4025   -2.9145 O   0  0  0  0  0  0  0  0  0  0  0  0
  -11.8086   54.4978   -3.6049 N   0  0  0  0  0  0  0  0  0  0  0  0
  -12.0139   55.3968   -4.5844 C   0  0  0  0  0  0  0  0  0  0  0  0
  -11.0640   55.7910   -5.5637 N   0  0  0  0  0  0  0  0  0  0  0  0
  -13.4648   57.4794   -6.3383 N   0  0  0  0  0  0  0  0  0  0  0  0
  -14.3969   58.3217   -6.8652 C   0  0  0  0  0  0  0  0  0  0  0  0
  -14.4096   59.2046   -7.9271 C   0  0  0  0  0  0  0  0  0  0  0  0
  -15.5504   59.8884   -8.1519 N   0  0  0  0  0  0  0  0  0  0  0  0
  -16.6494   59.7483   -7.4015 C   0  0  0  0  0  0  0  0  0  0  0  0
  -18.2456   60.7465   -7.7661 Br  0  0  0  0  0  0  0  0  0  0  0  0
  -16.6691   58.8766   -6.3359 C   0  0  0  0  0  0  0  0  0  0  0  0
  -15.5351   58.1637   -6.0724 C   0  0  0  0  0  0  0  0  0  0  0  0
  1  2  1  0
  2  3  1  0
  3  4  1  0
  4  5  1  0
  5  6  2  0
  6  7  1  0
  7  8  1  0
  8  9  2  0
  9 10  1  0
  4 11  2  0
 11 12  1  0
 12 13  2  0
 13 14  1  0
 14 15  2  0
 15 16  1  0
 15 17  1  0
 17 18  2  0
 18  3  1  0
  9  5  1  0
 18 12  1  0
M  END
>  <shape_align_shape_tanimoto>  (2) 
0.19099814478097762

>  <shape_align_color_tanimoto>  (2) 
0.027687610001685872

>  <metric>  (2) 
color

>  <metric_score>  (2) 
0.028

>  <template_pid>  (2) 
4C37

>  <template_shape_score>  (2) 
0.191

>  <template_color_score>  (2) 
0.028

>  <template_combo_score>  (2) 
0.109

$$$$
4C37_combo_pose
     RDKit          3D

 18 20  0  0  0  0  0  0  0  0999 V2000
  -16.1164   57.6507   -2.8320 C   0  0  0  0  0  0  0  0  0  0  0  0
  -16.1902   56.8066   -4.0834 C   0  0  0  0  0  0  0  0  0  0  0  0
  -15.2671   57.2432   -5.0998 N   0  0  0  0  0  0  0  0  0  0  0  0
  -13.9967   56.8385   -5.2814 C   0  0  0  0  0  0  0  0  0  0  0  0
  -13.3086   55.8539   -4.4534 C   0  0  0  0  0  0  0  0  0  0  0  0
  -13.8084   55.1954   -3.3922 N   0  0  0  0  0  0  0  0  0  0  0  0
  -12.8963   54.4025   -2.9145 O   0  0  0  0  0  0  0  0  0  0  0  0
  -11.8086   54.4978   -3.6049 N   0  0  0  0  0  0  0  0  0  0  0  0
  -12.0139   55.3968   -4.5844 C   0  0  0  0  0  0  0  0  0  0  0  0
  -11.0640   55.7910   -5.5637 N   0  0  0  0  0  0  0  0  0  0  0  0
  -13.4648   57.4794   -6.3383 N   0  0  0  0  0  0  0  0  0  0  0  0
  -14.3969   58.3217   -6.8652 C   0  0  0  0  0  0  0  0  0  0  0  0
  -14.4096   59.2046   -7.9271 C   0  0  0  0  0  0  0  0  0  0  0  0
  -15.5504   59.8884   -8.1519 N   0  0  0  0  0  0  0  0  0  0  0  0
  -16.6494   59.7483   -7.4015 C   0  0  0  0  0  0  0  0  0  0  0  0
  -18.2456   60.7465   -7.7661 Br  0  0  0  0  0  0  0  0  0  0  0  0
  -16.6691   58.8766   -6.3359 C   0  0  0  0  0  0  0  0  0  0  0  0
  -15.5351   58.1637   -6.0724 C   0  0  0  0  0  0  0  0  0  0  0  0
  1  2  1  0
  2  3  1  0
  3  4  1  0
  4  5  1  0
  5  6  2  0
  6  7  1  0
  7  8  1  0
  8  9  2  0
  9 10  1  0
  4 11  2  0
 11 12  1  0
 12 13  2  0
 13 14  1  0
 14 15  2  0
 15 16  1  0
 15 17  1  0
 17 18  2  0
 18  3  1  0
  9  5  1  0
 18 12  1  0
M  END
>  <shape_align_shape_tanimoto>  (3) 
0.19099814478097762

>  <shape_align_color_tanimoto>  (3) 
0.027687610001685872

>  <metric>  (3) 
combo

>  <metric_score>  (3) 
0.109

>  <template_pid>  (3) 
4C37

>  <template_shape_score>  (3) 
0.191

>  <template_color_score>  (3) 
0.028

>  <template_combo_score>  (3) 
0.109

$$$$
