6CW4_shape_pose
     RDKit          3D

 24 24  0  0  0  0  0  0  0  0999 V2000
    2.1164    0.8341   -3.3264 O   0  0  0  0  0  0  0  0  0  0  0  0
    1.7310    0.2758   -4.6739 P   0  0  0  0  0  0  0  0  0  0  0  0
    1.3368   -1.3475   -4.4869 O   0  0  0  0  0  0  0  0  0  0  0  0
    0.3196    1.0642   -5.1824 O   0  0  0  0  0  0  0  0  0  0  0  0
    2.9165    0.5470   -5.8365 O   0  0  0  0  0  0  0  0  0  0  0  0
    4.1712    0.1088   -5.4425 C   0  0  1  0  0  0  0  0  0  0  0  0
    4.8153   -0.8344   -6.4444 C   0  0  2  0  0  0  0  0  0  0  0  0
    3.8947   -1.5771   -7.1671 O   0  0  0  0  0  0  0  0  0  0  0  0
    5.7765   -1.6688   -5.6646 C   0  0  1  0  0  0  0  0  0  0  0  0
    6.5815   -2.4719   -6.4613 O   0  0  0  0  0  0  0  0  0  0  0  0
    6.2485   -4.0787   -6.0376 P   0  0  0  0  0  0  0  0  0  0  0  0
    7.4582   -4.8968   -6.4025 O   0  0  0  0  0  0  0  0  0  0  0  0
    5.9356   -4.2366   -4.3855 O   0  0  0  0  0  0  0  0  0  0  0  0
    4.8861   -4.6578   -6.8757 O   0  0  0  0  0  0  0  0  0  0  0  0
    6.5652   -0.7592   -4.7662 C   0  0  2  0  0  0  0  0  0  0  0  0
    6.1970   -0.8581   -3.4301 O   0  0  0  0  0  0  0  0  0  0  0  0
    6.5459    0.6784   -5.1983 C   0  0  1  0  0  0  0  0  0  0  0  0
    7.3223    0.7615   -6.3583 O   0  0  0  0  0  0  0  0  0  0  0  0
    8.7201    1.6787   -6.1093 P   0  0  0  0  0  0  0  0  0  0  0  0
    9.2176    1.5543   -4.6765 O   0  0  0  0  0  0  0  0  0  0  0  0
    8.4538    3.3145   -6.4785 O   0  0  0  0  0  0  0  0  0  0  0  0
    9.9849    1.1249   -7.1177 O   0  0  0  0  0  0  0  0  0  0  0  0
    5.1764    1.2650   -5.3398 C   0  0  1  0  0  0  0  0  0  0  0  0
    5.0788    1.9422   -6.5551 O   0  0  0  0  0  0  0  0  0  0  0  0
  1  2  2  0
  2  3  1  0
  2  4  1  0
  2  5  1  0
  6  5  1  6
  6  7  1  0
  7  8  1  1
  7  9  1  0
  9 10  1  6
 10 11  1  0
 11 12  2  0
 11 13  1  0
 11 14  1  0
  9 15  1  0
 15 16  1  1
 15 17  1  0
 17 18  1  6
 18 19  1  0
 19 20  2  0
 19 21  1  0
 19 22  1  0
 17 23  1  0
 23 24  1  6
 23  6  1  0
M  END
>  <shape_align_shape_tanimoto>  (1) 
0.66941365090141858

>  <shape_align_color_tanimoto>  (1) 
0.091396479399474678

>  <metric>  (1) 
shape

>  <metric_score>  (1) 
0.669

>  <template_pid>  (1) 
6CW4

>  <template_shape_score>  (1) 
0.669

>  <template_color_score>  (1) 
0.091

>  <template_combo_score>  (1) 
0.380

$$$$
6CW4_color_pose
     RDKit          3D

 24 24  0  0  0  0  0  0  0  0999 V2000
    1.5442   -0.6512   -4.4168 O   0  0  0  0  0  0  0  0  0  0  0  0
    2.6241    0.1430   -3.7403 P   0  0  0  0  0  0  0  0  0  0  0  0
    2.8025   -0.3886   -2.1241 O   0  0  0  0  0  0  0  0  0  0  0  0
    2.2824    1.8020   -3.7991 O   0  0  0  0  0  0  0  0  0  0  0  0
    4.0838   -0.1111   -4.5105 O   0  0  0  0  0  0  0  0  0  0  0  0
    4.3245    0.8101   -5.5499 C   0  0  1  0  0  0  0  0  0  0  0  0
    5.6427    1.5035   -5.3123 C   0  0  2  0  0  0  0  0  0  0  0  0
    5.5883    2.7977   -5.8320 O   0  0  0  0  0  0  0  0  0  0  0  0
    6.7944    0.7158   -5.8915 C   0  0  1  0  0  0  0  0  0  0  0  0
    7.9873    0.9998   -5.2099 O   0  0  0  0  0  0  0  0  0  0  0  0
    9.1194    1.4961   -6.3703 P   0  0  0  0  0  0  0  0  0  0  0  0
    8.9926    0.5537   -7.5488 O   0  0  0  0  0  0  0  0  0  0  0  0
    8.7664    3.0552   -6.9294 O   0  0  0  0  0  0  0  0  0  0  0  0
   10.6860    1.4446   -5.7813 O   0  0  0  0  0  0  0  0  0  0  0  0
    6.5196   -0.7449   -5.6723 C   0  0  2  0  0  0  0  0  0  0  0  0
    7.6444   -1.5154   -6.0265 O   0  0  0  0  0  0  0  0  0  0  0  0
    5.2946   -1.2282   -6.4234 C   0  0  1  0  0  0  0  0  0  0  0  0
    4.5415   -1.9799   -5.5389 O   0  0  0  0  0  0  0  0  0  0  0  0
    4.2157   -3.5390   -6.0216 P   0  0  0  0  0  0  0  0  0  0  0  0
    2.8822   -3.6374   -6.7495 O   0  0  0  0  0  0  0  0  0  0  0  0
    4.0362   -4.4687   -4.5954 O   0  0  0  0  0  0  0  0  0  0  0  0
    5.4370   -4.2603   -6.9113 O   0  0  0  0  0  0  0  0  0  0  0  0
    4.4689   -0.0140   -6.8154 C   0  0  1  0  0  0  0  0  0  0  0  0
    3.1858   -0.4120   -7.2413 O   0  0  0  0  0  0  0  0  0  0  0  0
  1  2  2  0
  2  3  1  0
  2  4  1  0
  2  5  1  0
  6  5  1  1
  6  7  1  0
  7  8  1  6
  7  9  1  0
  9 10  1  1
 10 11  1  0
 11 12  2  0
 11 13  1  0
 11 14  1  0
  9 15  1  0
 15 16  1  6
 15 17  1  0
 17 18  1  1
 18 19  1  0
 19 20  2  0
 19 21  1  0
 19 22  1  0
 17 23  1  0
 23 24  1  1
 23  6  1  0
M  END
>  <shape_align_shape_tanimoto>  (2) 
0.64752925450265075

>  <shape_align_color_tanimoto>  (2) 
0.12256194836667293

>  <metric>  (2) 
color

>  <metric_score>  (2) 
0.123

>  <template_pid>  (2) 
6CW4

>  <template_shape_score>  (2) 
0.648

>  <template_color_score>  (2) 
0.123

>  <template_combo_score>  (2) 
0.385

$$$$
6CW4_combo_pose
     RDKit          3D

 24 24  0  0  0  0  0  0  0  0999 V2000
    1.3020   -0.8178   -4.6607 O   0  0  0  0  0  0  0  0  0  0  0  0
    2.0953    0.4707   -4.4290 P   0  0  0  0  0  0  0  0  0  0  0  0
    0.9603    1.7011   -4.2377 O   0  0  0  0  0  0  0  0  0  0  0  0
    2.9996    0.2304   -3.0186 O   0  0  0  0  0  0  0  0  0  0  0  0
    3.1125    0.7620   -5.7693 O   0  0  0  0  0  0  0  0  0  0  0  0
    4.3379    0.2113   -5.5110 C   0  0  1  0  0  0  0  0  0  0  0  0
    4.7362   -0.8395   -6.5429 C   0  0  2  0  0  0  0  0  0  0  0  0
    3.6551   -1.5746   -6.9763 O   0  0  0  0  0  0  0  0  0  0  0  0
    5.7200   -1.7191   -5.7993 C   0  0  1  0  0  0  0  0  0  0  0  0
    6.2714   -2.5957   -6.7389 O   0  0  0  0  0  0  0  0  0  0  0  0
    5.8131   -4.1947   -6.4602 P   0  0  0  0  0  0  0  0  0  0  0  0
    4.8191   -4.6750   -7.4977 O   0  0  0  0  0  0  0  0  0  0  0  0
    7.2042   -5.1444   -6.5945 O   0  0  0  0  0  0  0  0  0  0  0  0
    5.1286   -4.3960   -4.9447 O   0  0  0  0  0  0  0  0  0  0  0  0
    6.7423   -0.9343   -5.0441 C   0  0  2  0  0  0  0  0  0  0  0  0
    6.5943   -1.1815   -3.6673 O   0  0  0  0  0  0  0  0  0  0  0  0
    6.7782    0.5282   -5.3261 C   0  0  1  0  0  0  0  0  0  0  0  0
    7.6066    0.7806   -6.4388 O   0  0  0  0  0  0  0  0  0  0  0  0
    8.9626    1.6860   -6.0573 P   0  0  0  0  0  0  0  0  0  0  0  0
    8.7950    3.1424   -6.4709 O   0  0  0  0  0  0  0  0  0  0  0  0
   10.3243    1.1261   -6.9282 O   0  0  0  0  0  0  0  0  0  0  0  0
    9.2980    1.7248   -4.3994 O   0  0  0  0  0  0  0  0  0  0  0  0
    5.4670    1.1954   -5.5116 C   0  0  1  0  0  0  0  0  0  0  0  0
    5.4308    1.8528   -6.7410 O   0  0  0  0  0  0  0  0  0  0  0  0
  1  2  2  0
  2  3  1  0
  2  4  1  0
  2  5  1  0
  6  5  1  6
  6  7  1  0
  7  8  1  1
  7  9  1  0
  9 10  1  6
 10 11  1  0
 11 12  2  0
 11 13  1  0
 11 14  1  0
  9 15  1  0
 15 16  1  1
 15 17  1  0
 17 18  1  6
 18 19  1  0
 19 20  2  0
 19 21  1  0
 19 22  1  0
 17 23  1  0
 23 24  1  6
 23  6  1  0
M  END
>  <shape_align_shape_tanimoto>  (3) 
0.66720667204580486

>  <shape_align_color_tanimoto>  (3) 
0.1068546168536669

>  <metric>  (3) 
combo

>  <metric_score>  (3) 
0.387

>  <template_pid>  (3) 
6CW4

>  <template_shape_score>  (3) 
0.667

>  <template_color_score>  (3) 
0.107

>  <template_combo_score>  (3) 
0.387

$$$$
