4Z88_shape_pose
     RDKit          3D

 95 96  0  0  0  0  0  0  0  0999 V2000
    4.8928   11.4365   10.7290 C   0  0  0  0  0  0  0  0  0  0  0  0
    5.2433   10.6772    9.4845 C   0  0  0  0  0  0  0  0  0  0  0  0
    6.3411   11.4681    8.7389 C   0  0  2  0  0  0  0  0  0  0  0  0
    5.7285   12.7968    8.4334 C   0  0  0  0  0  0  0  0  0  0  0  0
    6.7302   10.7192    7.5013 C   0  0  2  0  0  0  0  0  0  0  0  0
    7.2464    9.3776    7.9586 N   0  0  0  0  0  0  0  0  0  0  0  0
    7.4703    8.3308    7.0580 C   0  0  0  0  0  0  0  0  0  0  0  0
    7.2511    8.6420    5.8119 O   0  0  0  0  0  0  0  0  0  0  0  0
    7.8904    6.9702    7.2956 C   0  0  2  0  0  0  0  0  0  0  0  0
    8.8619    6.4890    8.2586 C   0  0  0  0  0  0  0  0  0  0  0  0
   10.2765    6.7998    8.3079 C   0  0  0  0  0  0  0  0  0  0  0  0
   10.7424    8.1364    8.5678 C   0  0  0  0  0  0  0  0  0  0  0  0
   10.0973    9.1422    8.9340 O   0  0  0  0  0  0  0  0  0  0  0  0
   12.1260    8.3784    8.3925 O   0  0  0  0  0  0  0  0  0  0  0  0
    8.0760    6.2741    5.9822 N   0  0  0  0  0  0  0  0  0  0  0  0
    9.1211    6.8068    5.1610 C   0  0  0  0  0  0  0  0  0  0  0  0
    9.8309    7.7790    5.4817 O   0  0  0  0  0  0  0  0  0  0  0  0
    9.4361    6.1874    3.8150 C   0  0  2  0  0  0  0  0  0  0  0  0
    9.3835    4.7127    3.9805 C   0  0  0  0  0  0  0  0  0  0  0  0
   10.7840    4.2327    3.7338 C   0  0  0  0  0  0  0  0  0  0  0  0
   11.5975    5.4874    4.0355 C   0  0  0  0  0  0  0  0  0  0  0  0
   10.7505    6.5423    3.4042 N   0  0  0  0  0  0  0  0  0  0  0  0
   11.3430    7.5589    2.6470 C   0  0  0  0  0  0  0  0  0  0  0  0
   12.6379    7.5036    2.5895 O   0  0  0  0  0  0  0  0  0  0  0  0
   10.7361    8.6664    1.9194 C   0  0  2  0  0  0  0  0  0  0  0  0
    9.8056    8.3145    0.8055 C   0  0  0  0  0  0  0  0  0  0  0  0
   10.3888    7.5155   -0.3151 C   0  0  0  0  0  0  0  0  0  0  0  0
   10.9221    6.1747    0.0604 C   0  0  0  0  0  0  0  0  0  0  0  0
    9.3060    7.2960   -1.3831 C   0  0  0  0  0  0  0  0  0  0  0  0
   11.8417    9.5174    1.3902 N   0  0  0  0  0  0  0  0  0  0  0  0
   11.8669   10.9121    1.6369 C   0  0  0  0  0  0  0  0  0  0  0  0
   10.9590   11.4981    2.2999 O   0  0  0  0  0  0  0  0  0  0  0  0
   12.9675   11.7666    1.1315 C   0  0  2  0  0  0  0  0  0  0  0  0
   14.3154   11.2361    1.4823 C   0  0  0  0  0  0  0  0  0  0  0  0
   14.6534   11.0589    2.9040 C   0  0  0  0  0  0  0  0  0  0  0  0
   14.6675   12.2532    3.7860 C   0  0  0  0  0  0  0  0  0  0  0  0
   15.6441   13.3190    3.3466 C   0  0  0  0  0  0  0  0  0  0  0  0
   15.5452   14.4160    4.2896 N   0  0  0  0  0  0  0  0  0  0  0  0
   12.7788   13.1708    1.3756 N   0  0  0  0  0  0  0  0  0  0  0  0
   12.9597   14.0604    0.2791 C   0  0  0  0  0  0  0  0  0  0  0  0
   13.2797   13.6972   -0.8756 O   0  0  0  0  0  0  0  0  0  0  0  0
   12.7711   15.5455    0.4518 C   0  0  1  0  0  0  0  0  0  0  0  0
   13.1507   16.3120   -0.6747 N   0  0  0  0  0  0  0  0  0  0  0  0
   11.4180   15.8485    0.9724 C   0  0  0  0  0  0  0  0  0  0  0  0
   10.2513   15.3934    0.1887 C   0  0  0  0  0  0  0  0  0  0  0  0
   10.0835   15.9601   -1.1782 C   0  0  0  0  0  0  0  0  0  0  0  0
    9.9055   17.4072   -1.1689 N   0  0  0  0  0  0  0  0  0  0  0  0
    9.7367   18.1734   -2.3366 C   0  0  0  0  0  0  0  0  0  0  0  0
    9.5715   19.5831   -2.2636 N   0  0  0  0  0  0  0  0  0  0  0  0
    9.7298   17.6297   -3.4971 N   0  0  0  0  0  0  0  0  0  0  0  0
    7.7550   11.3836    6.7331 C   0  0  0  0  0  0  0  0  0  0  0  0
    8.9530   10.9093    6.8343 O   0  0  0  0  0  0  0  0  0  0  0  0
    7.6788   12.4995    5.8499 N   0  0  0  0  0  0  0  0  0  0  0  0
    8.9718   12.9664    5.2452 C   0  0  0  0  0  0  0  0  0  0  0  0
    8.5730   13.2896    3.8253 C   0  0  0  0  0  0  0  0  0  0  0  0
    7.2616   13.9579    4.0558 C   0  0  0  0  0  0  0  0  0  0  0  0
    6.6528   13.3128    5.3401 C   0  0  1  0  0  0  0  0  0  0  0  0
    5.4503   12.6264    4.7793 C   0  0  0  0  0  0  0  0  0  0  0  0
    5.4438   11.4118    4.4688 O   0  0  0  0  0  0  0  0  0  0  0  0
    4.2518   13.4524    4.6011 N   0  0  0  0  0  0  0  0  0  0  0  0
    3.1338   12.7745    4.0302 C   0  0  1  0  0  0  0  0  0  0  0  0
    1.9353   12.6096    4.8677 C   0  0  0  0  0  0  0  0  0  0  0  0
    1.1242   13.7135    5.3602 C   0  0  0  0  0  0  0  0  0  0  0  0
    1.8068   14.7314    6.1996 C   0  0  0  0  0  0  0  0  0  0  0  0
    0.8074   15.7943    6.6948 C   0  0  0  0  0  0  0  0  0  0  0  0
   -0.2369   15.1964    7.4939 N   0  0  0  0  0  0  0  0  0  0  0  0
    2.7266   13.5198    2.7372 C   0  0  0  0  0  0  0  0  0  0  0  0
    2.0144   12.9349    1.8921 O   0  0  0  0  0  0  0  0  0  0  0  0
    3.1855   14.8755    2.5623 N   0  0  0  0  0  0  0  0  0  0  0  0
    2.8055   15.5957    1.3280 C   0  0  1  0  0  0  0  0  0  0  0  0
    1.2559   15.7991    1.4652 C   0  0  0  0  0  0  0  0  0  0  0  0
    0.6981   16.4692    0.3006 C   0  0  0  0  0  0  0  0  0  0  0  0
   -0.7016   16.8039    0.3615 N   0  0  0  0  0  0  0  0  0  0  0  0
    1.2807   16.7956   -0.7533 O   0  0  0  0  0  0  0  0  0  0  0  0
    3.4044   16.9265    1.3216 C   0  0  0  0  0  0  0  0  0  0  0  0
    3.4274   17.5986    0.2415 O   0  0  0  0  0  0  0  0  0  0  0  0
    3.9777   17.5960    2.4418 N   0  0  0  0  0  0  0  0  0  0  0  0
    4.5050   18.9459    2.3203 C   0  0  1  0  0  0  0  0  0  0  0  0
    3.3415   19.9328    2.4811 C   0  0  0  0  0  0  0  0  0  0  0  0
    3.8446   21.3317    2.3806 C   0  0  0  0  0  0  0  0  0  0  0  0
    2.6494   22.2778    2.4612 C   0  0  0  0  0  0  0  0  0  0  0  0
    1.9215   22.1319    3.7476 C   0  0  0  0  0  0  0  0  0  0  0  0
    0.7725   23.0699    3.7809 N   0  0  0  0  0  0  0  0  0  0  0  0
    5.6821   19.2758    3.0966 C   0  0  0  0  0  0  0  0  0  0  0  0
    6.1971   20.4350    2.9471 O   0  0  0  0  0  0  0  0  0  0  0  0
    6.3464   18.4370    4.0348 N   0  0  0  0  0  0  0  0  0  0  0  0
    7.5473   18.9764    4.7899 C   0  0  1  0  0  0  0  0  0  0  0  0
    7.1286   18.8136    6.1822 C   0  0  0  0  0  0  0  0  0  0  0  0
    7.8862   19.1514    7.3747 C   0  0  0  0  0  0  0  0  0  0  0  0
    9.1022   18.3267    7.6314 C   0  0  0  0  0  0  0  0  0  0  0  0
    9.7326   18.8138    8.9545 C   0  0  0  0  0  0  0  0  0  0  0  0
   10.9216   18.0020    9.1816 N   0  0  0  0  0  0  0  0  0  0  0  0
    8.7490   18.3850    4.2674 C   0  0  0  0  0  0  0  0  0  0  0  0
    8.8295   17.2236    3.4174 N   0  0  0  0  0  0  0  0  0  0  0  0
    9.9062   18.8780    4.5325 O   0  0  0  0  0  0  0  0  0  0  0  0
  1  2  1  0
  2  3  1  0
  3  4  1  6
  3  5  1  0
  5  6  1  1
  6  7  1  0
  7  8  2  0
  7  9  1  0
  9 10  1  6
 10 11  1  0
 11 12  1  0
 12 13  2  0
 12 14  1  0
  9 15  1  0
 15 16  1  0
 16 17  2  0
 18 16  1  1
 18 19  1  0
 19 20  1  0
 20 21  1  0
 21 22  1  0
 22 23  1  0
 23 24  2  0
 23 25  1  0
 25 26  1  6
 26 27  1  0
 27 28  1  0
 27 29  1  0
 25 30  1  0
 30 31  1  0
 31 32  2  0
 31 33  1  0
 33 34  1  1
 34 35  1  0
 35 36  1  0
 36 37  1  0
 37 38  1  0
 33 39  1  0
 39 40  1  0
 40 41  2  0
 40 42  1  0
 42 43  1  6
 42 44  1  0
 44 45  1  0
 45 46  1  0
 46 47  1  0
 47 48  1  0
 48 49  1  0
 48 50  2  0
  5 51  1  0
 51 52  2  0
 51 53  1  0
 53 54  1  0
 54 55  1  0
 55 56  1  0
 56 57  1  0
 57 58  1  6
 58 59  2  0
 58 60  1  0
 60 61  1  0
 61 62  1  1
 62 63  1  0
 63 64  1  0
 64 65  1  0
 65 66  1  0
 61 67  1  0
 67 68  2  0
 67 69  1  0
 69 70  1  0
 70 71  1  1
 71 72  1  0
 72 73  1  0
 72 74  2  0
 70 75  1  0
 75 76  2  0
 75 77  1  0
 77 78  1  0
 78 79  1  1
 79 80  1  0
 80 81  1  0
 81 82  1  0
 82 83  1  0
 78 84  1  0
 84 85  2  0
 84 86  1  0
 86 87  1  0
 87 88  1  1
 88 89  1  0
 89 90  1  0
 90 91  1  0
 91 92  1  0
 87 93  1  0
 93 94  1  0
 93 95  2  0
 22 18  1  0
 57 53  1  0
M  CHG  7  14  -1  38   1  43   1  50   1  66   1  83   1  92   1
M  END
>  <shape_align_shape_tanimoto>  (1) 
0.330030244081427

>  <shape_align_color_tanimoto>  (1) 
0.010372739399318428

>  <metric>  (1) 
shape

>  <metric_score>  (1) 
0.330

>  <template_pid>  (1) 
4Z88

>  <template_shape_score>  (1) 
0.330

>  <template_color_score>  (1) 
0.010

>  <template_combo_score>  (1) 
0.170

$$$$
4Z88_color_pose
     RDKit          3D

 95 96  0  0  0  0  0  0  0  0999 V2000
   14.5845   13.6907    6.3533 C   0  0  0  0  0  0  0  0  0  0  0  0
   14.8819   12.8015    5.1461 C   0  0  0  0  0  0  0  0  0  0  0  0
   13.7644   12.7853    4.1751 C   0  0  2  0  0  0  0  0  0  0  0  0
   12.4709   12.2670    4.7394 C   0  0  0  0  0  0  0  0  0  0  0  0
   14.1605   12.1258    2.8647 C   0  0  2  0  0  0  0  0  0  0  0  0
   13.0332   12.1465    1.9589 N   0  0  0  0  0  0  0  0  0  0  0  0
   13.2795   12.3634    0.5523 C   0  0  0  0  0  0  0  0  0  0  0  0
   14.5368   12.4783    0.3007 O   0  0  0  0  0  0  0  0  0  0  0  0
   12.2492   12.4391   -0.4587 C   0  0  2  0  0  0  0  0  0  0  0  0
   12.4617   13.5615   -1.4301 C   0  0  0  0  0  0  0  0  0  0  0  0
   13.7242   13.4635   -2.2037 C   0  0  0  0  0  0  0  0  0  0  0  0
   13.7929   14.6404   -3.1861 C   0  0  0  0  0  0  0  0  0  0  0  0
   14.8174   14.6928   -3.9052 O   0  0  0  0  0  0  0  0  0  0  0  0
   12.7532   15.5592   -3.2319 O   0  0  0  0  0  0  0  0  0  0  0  0
   10.8733   12.5538    0.0054 N   0  0  0  0  0  0  0  0  0  0  0  0
    9.8505   11.6409   -0.2747 C   0  0  0  0  0  0  0  0  0  0  0  0
   10.1566   10.6114   -0.9535 O   0  0  0  0  0  0  0  0  0  0  0  0
    8.4374   11.7528    0.1362 C   0  0  2  0  0  0  0  0  0  0  0  0
    7.5833   11.4379   -1.1180 C   0  0  0  0  0  0  0  0  0  0  0  0
    7.5206   12.7560   -1.8799 C   0  0  0  0  0  0  0  0  0  0  0  0
    8.2981   13.7381   -0.9839 C   0  0  0  0  0  0  0  0  0  0  0  0
    7.9946   13.1473    0.3117 N   0  0  0  0  0  0  0  0  0  0  0  0
    7.4013   13.7553    1.4656 C   0  0  0  0  0  0  0  0  0  0  0  0
    7.1580   13.0159    2.4191 O   0  0  0  0  0  0  0  0  0  0  0  0
    7.1446   15.2223    1.3681 C   0  0  2  0  0  0  0  0  0  0  0  0
    8.5059   15.8540    1.4616 C   0  0  0  0  0  0  0  0  0  0  0  0
    8.5673   17.3431    1.3996 C   0  0  0  0  0  0  0  0  0  0  0  0
   10.0975   17.6599    1.4918 C   0  0  0  0  0  0  0  0  0  0  0  0
    7.8966   18.0372    2.5693 C   0  0  0  0  0  0  0  0  0  0  0  0
    6.1697   15.7423    2.2430 N   0  0  0  0  0  0  0  0  0  0  0  0
    5.7658   15.4385    3.5407 C   0  0  0  0  0  0  0  0  0  0  0  0
    6.3211   14.5277    4.1996 O   0  0  0  0  0  0  0  0  0  0  0  0
    4.6615   16.1691    4.2056 C   0  0  2  0  0  0  0  0  0  0  0  0
    3.5236   15.2952    4.6539 C   0  0  0  0  0  0  0  0  0  0  0  0
    3.8331   14.2274    5.6293 C   0  0  0  0  0  0  0  0  0  0  0  0
    2.5660   13.4520    5.9915 C   0  0  0  0  0  0  0  0  0  0  0  0
    1.5135   14.3314    6.5926 C   0  0  0  0  0  0  0  0  0  0  0  0
    0.3510   13.5126    6.9152 N   0  0  0  0  0  0  0  0  0  0  0  0
    4.1077   17.1408    3.2589 N   0  0  0  0  0  0  0  0  0  0  0  0
    4.0707   18.5333    3.4951 C   0  0  0  0  0  0  0  0  0  0  0  0
    4.5590   18.9290    4.6023 O   0  0  0  0  0  0  0  0  0  0  0  0
    3.4892   19.4874    2.5050 C   0  0  1  0  0  0  0  0  0  0  0  0
    3.3712   20.8179    3.1262 N   0  0  0  0  0  0  0  0  0  0  0  0
    4.4672   19.5930    1.3551 C   0  0  0  0  0  0  0  0  0  0  0  0
    4.0114   20.5229    0.2509 C   0  0  0  0  0  0  0  0  0  0  0  0
    5.0745   20.5443   -0.8573 C   0  0  0  0  0  0  0  0  0  0  0  0
    6.3490   21.0133   -0.3553 N   0  0  0  0  0  0  0  0  0  0  0  0
    7.5167   21.0943   -1.1944 C   0  0  0  0  0  0  0  0  0  0  0  0
    8.7697   21.5507   -0.7053 N   0  0  0  0  0  0  0  0  0  0  0  0
    7.4540   20.7447   -2.4330 N   0  0  0  0  0  0  0  0  0  0  0  0
   14.9342   10.9164    2.9828 C   0  0  0  0  0  0  0  0  0  0  0  0
   16.0863   11.1503    3.6577 O   0  0  0  0  0  0  0  0  0  0  0  0
   14.8936    9.5766    2.6299 N   0  0  0  0  0  0  0  0  0  0  0  0
   16.2023    8.8039    3.0295 C   0  0  0  0  0  0  0  0  0  0  0  0
   15.5185    7.7553    3.8693 C   0  0  0  0  0  0  0  0  0  0  0  0
   14.1366    7.5699    3.2927 C   0  0  0  0  0  0  0  0  0  0  0  0
   14.1909    8.5135    2.0725 C   0  0  1  0  0  0  0  0  0  0  0  0
   12.9399    8.5385    1.3681 C   0  0  0  0  0  0  0  0  0  0  0  0
   12.2061    9.4549    1.0050 O   0  0  0  0  0  0  0  0  0  0  0  0
   12.4262    7.2124    1.0039 N   0  0  0  0  0  0  0  0  0  0  0  0
   11.1945    7.0280    0.2918 C   0  0  1  0  0  0  0  0  0  0  0  0
   11.3364    5.9471   -0.7382 C   0  0  0  0  0  0  0  0  0  0  0  0
   12.3951    6.2934   -1.7355 C   0  0  0  0  0  0  0  0  0  0  0  0
   12.5655    5.1984   -2.7789 C   0  0  0  0  0  0  0  0  0  0  0  0
   11.3296    4.9111   -3.5592 C   0  0  0  0  0  0  0  0  0  0  0  0
   10.8041    6.0215   -4.3051 N   0  0  0  0  0  0  0  0  0  0  0  0
   10.0575    6.7446    1.2318 C   0  0  0  0  0  0  0  0  0  0  0  0
    8.9251    6.3696    0.8260 O   0  0  0  0  0  0  0  0  0  0  0  0
   10.3613    6.9389    2.6204 N   0  0  0  0  0  0  0  0  0  0  0  0
    9.3990    6.7067    3.6509 C   0  0  1  0  0  0  0  0  0  0  0  0
    9.9748    6.2909    4.9541 C   0  0  0  0  0  0  0  0  0  0  0  0
   10.7369    5.0447    4.7420 C   0  0  0  0  0  0  0  0  0  0  0  0
   10.3419    3.7546    5.1527 N   0  0  0  0  0  0  0  0  0  0  0  0
   11.8490    5.1423    4.1331 O   0  0  0  0  0  0  0  0  0  0  0  0
    8.7723    8.0854    3.8897 C   0  0  0  0  0  0  0  0  0  0  0  0
    9.1493    9.0763    3.2249 O   0  0  0  0  0  0  0  0  0  0  0  0
    7.7766    8.1114    4.8895 N   0  0  0  0  0  0  0  0  0  0  0  0
    7.0251    9.2650    5.2979 C   0  0  1  0  0  0  0  0  0  0  0  0
    5.5963    9.1439    4.7257 C   0  0  0  0  0  0  0  0  0  0  0  0
    4.9790    7.8933    5.2134 C   0  0  0  0  0  0  0  0  0  0  0  0
    3.6238    7.5489    4.7235 C   0  0  0  0  0  0  0  0  0  0  0  0
    2.5372    8.5016    5.0455 C   0  0  0  0  0  0  0  0  0  0  0  0
    2.6629    9.7902    4.4673 N   0  0  0  0  0  0  0  0  0  0  0  0
    7.0548    9.5293    6.7443 C   0  0  0  0  0  0  0  0  0  0  0  0
    7.8019    8.8787    7.5314 O   0  0  0  0  0  0  0  0  0  0  0  0
    6.2414   10.5364    7.3468 N   0  0  0  0  0  0  0  0  0  0  0  0
    6.3099   10.7995    8.7854 C   0  0  1  0  0  0  0  0  0  0  0  0
    6.1205   12.2490    9.1057 C   0  0  0  0  0  0  0  0  0  0  0  0
    7.0898   13.2055    8.5074 C   0  0  0  0  0  0  0  0  0  0  0  0
    8.4982   12.9525    8.9359 C   0  0  0  0  0  0  0  0  0  0  0  0
    9.3577   14.0149    8.2604 C   0  0  0  0  0  0  0  0  0  0  0  0
    9.2576   13.9403    6.8281 N   0  0  0  0  0  0  0  0  0  0  0  0
    5.2852    9.9645    9.5225 C   0  0  0  0  0  0  0  0  0  0  0  0
    4.4155    9.0629    8.8676 N   0  0  0  0  0  0  0  0  0  0  0  0
    5.2083   10.0840   10.7893 O   0  0  0  0  0  0  0  0  0  0  0  0
  1  2  1  0
  2  3  1  0
  3  4  1  1
  3  5  1  0
  5  6  1  1
  6  7  1  0
  7  8  2  0
  7  9  1  0
  9 10  1  6
 10 11  1  0
 11 12  1  0
 12 13  2  0
 12 14  1  0
  9 15  1  0
 15 16  1  0
 16 17  2  0
 18 16  1  6
 18 19  1  0
 19 20  1  0
 20 21  1  0
 21 22  1  0
 22 23  1  0
 23 24  2  0
 23 25  1  0
 25 26  1  1
 26 27  1  0
 27 28  1  0
 27 29  1  0
 25 30  1  0
 30 31  1  0
 31 32  2  0
 31 33  1  0
 33 34  1  6
 34 35  1  0
 35 36  1  0
 36 37  1  0
 37 38  1  0
 33 39  1  0
 39 40  1  0
 40 41  2  0
 40 42  1  0
 42 43  1  1
 42 44  1  0
 44 45  1  0
 45 46  1  0
 46 47  1  0
 47 48  1  0
 48 49  1  0
 48 50  2  0
  5 51  1  0
 51 52  2  0
 51 53  1  0
 53 54  1  0
 54 55  1  0
 55 56  1  0
 56 57  1  0
 57 58  1  1
 58 59  2  0
 58 60  1  0
 60 61  1  0
 61 62  1  6
 62 63  1  0
 63 64  1  0
 64 65  1  0
 65 66  1  0
 61 67  1  0
 67 68  2  0
 67 69  1  0
 69 70  1  0
 70 71  1  1
 71 72  1  0
 72 73  1  0
 72 74  2  0
 70 75  1  0
 75 76  2  0
 75 77  1  0
 77 78  1  0
 78 79  1  1
 79 80  1  0
 80 81  1  0
 81 82  1  0
 82 83  1  0
 78 84  1  0
 84 85  2  0
 84 86  1  0
 86 87  1  0
 87 88  1  6
 88 89  1  0
 89 90  1  0
 90 91  1  0
 91 92  1  0
 87 93  1  0
 93 94  1  0
 93 95  2  0
 22 18  1  0
 57 53  1  0
M  CHG  7  14  -1  38   1  43   1  50   1  66   1  83   1  92   1
M  END
>  <shape_align_shape_tanimoto>  (2) 
0.25501687034479653

>  <shape_align_color_tanimoto>  (2) 
0.050630119315661581

>  <metric>  (2) 
color

>  <metric_score>  (2) 
0.051

>  <template_pid>  (2) 
4Z88

>  <template_shape_score>  (2) 
0.255

>  <template_color_score>  (2) 
0.051

>  <template_combo_score>  (2) 
0.153

$$$$
4Z88_combo_pose
     RDKit          3D

 95 96  0  0  0  0  0  0  0  0999 V2000
   13.4183    6.7465    7.2699 C   0  0  0  0  0  0  0  0  0  0  0  0
   12.3477    6.2725    6.2839 C   0  0  0  0  0  0  0  0  0  0  0  0
   12.3629    7.0991    5.0474 C   0  0  2  0  0  0  0  0  0  0  0  0
   12.1034    8.5660    5.3474 C   0  0  0  0  0  0  0  0  0  0  0  0
   11.4851    6.6085    3.9273 C   0  0  2  0  0  0  0  0  0  0  0  0
   11.6718    7.6169    2.8241 N   0  0  0  0  0  0  0  0  0  0  0  0
   12.0258    7.1610    1.5159 C   0  0  0  0  0  0  0  0  0  0  0  0
   12.1405    5.9156    1.3878 O   0  0  0  0  0  0  0  0  0  0  0  0
   12.2308    8.1417    0.4250 C   0  0  2  0  0  0  0  0  0  0  0  0
   13.5537    8.0305   -0.2411 C   0  0  0  0  0  0  0  0  0  0  0  0
   13.7739    6.7031   -0.8758 C   0  0  0  0  0  0  0  0  0  0  0  0
   12.7904    6.4108   -1.9240 C   0  0  0  0  0  0  0  0  0  0  0  0
   11.8978    7.1706   -2.3491 O   0  0  0  0  0  0  0  0  0  0  0  0
   12.8518    5.1393   -2.5179 O   0  0  0  0  0  0  0  0  0  0  0  0
   12.0408    9.4964    0.9753 N   0  0  0  0  0  0  0  0  0  0  0  0
   10.9566   10.3214    0.5747 C   0  0  0  0  0  0  0  0  0  0  0  0
   10.1568    9.8117   -0.2714 O   0  0  0  0  0  0  0  0  0  0  0  0
   10.7491   11.6943    1.0945 C   0  0  2  0  0  0  0  0  0  0  0  0
   10.6178   12.6181   -0.0582 C   0  0  0  0  0  0  0  0  0  0  0  0
   11.9899   13.1731   -0.2584 C   0  0  0  0  0  0  0  0  0  0  0  0
   12.8660   12.5170    0.8040 C   0  0  0  0  0  0  0  0  0  0  0  0
   11.9413   12.1382    1.8367 N   0  0  0  0  0  0  0  0  0  0  0  0
   12.0046   12.1092    3.2351 C   0  0  0  0  0  0  0  0  0  0  0  0
   10.9336   11.7082    3.8382 O   0  0  0  0  0  0  0  0  0  0  0  0
   13.1123   12.4657    4.1237 C   0  0  2  0  0  0  0  0  0  0  0  0
   12.6973   13.4795    5.1395 C   0  0  0  0  0  0  0  0  0  0  0  0
   11.5899   13.0780    6.0644 C   0  0  0  0  0  0  0  0  0  0  0  0
   11.9361   11.8373    6.8671 C   0  0  0  0  0  0  0  0  0  0  0  0
   11.4639   14.2080    7.1247 C   0  0  0  0  0  0  0  0  0  0  0  0
   14.3255   12.9208    3.4631 N   0  0  0  0  0  0  0  0  0  0  0  0
   15.4189   12.0767    3.2409 C   0  0  0  0  0  0  0  0  0  0  0  0
   15.3050   10.8692    3.6354 O   0  0  0  0  0  0  0  0  0  0  0  0
   16.6905   12.4328    2.6002 C   0  0  2  0  0  0  0  0  0  0  0  0
   16.4107   13.1369    1.2740 C   0  0  0  0  0  0  0  0  0  0  0  0
   17.6954   13.5757    0.6252 C   0  0  0  0  0  0  0  0  0  0  0  0
   17.4102   14.2492   -0.6746 C   0  0  0  0  0  0  0  0  0  0  0  0
   16.7219   13.3516   -1.6484 C   0  0  0  0  0  0  0  0  0  0  0  0
   16.5181   14.1411   -2.8802 N   0  0  0  0  0  0  0  0  0  0  0  0
   17.5266   11.2552    2.4327 N   0  0  0  0  0  0  0  0  0  0  0  0
   17.6556   10.4816    1.2732 C   0  0  0  0  0  0  0  0  0  0  0  0
   17.0631   10.6662    0.1801 O   0  0  0  0  0  0  0  0  0  0  0  0
   18.5840    9.3093    1.3102 C   0  0  1  0  0  0  0  0  0  0  0  0
   19.2399    9.2124    2.5985 N   0  0  0  0  0  0  0  0  0  0  0  0
   17.7621    8.0653    1.0238 C   0  0  0  0  0  0  0  0  0  0  0  0
   18.5648    6.8079    1.0286 C   0  0  0  0  0  0  0  0  0  0  0  0
   17.6609    5.6408    0.7344 C   0  0  0  0  0  0  0  0  0  0  0  0
   16.6015    5.5116    1.7303 N   0  0  0  0  0  0  0  0  0  0  0  0
   15.6133    4.4691    1.6491 C   0  0  0  0  0  0  0  0  0  0  0  0
   14.5902    4.3512    2.6173 N   0  0  0  0  0  0  0  0  0  0  0  0
   15.6392    3.6065    0.6764 N   0  0  0  0  0  0  0  0  0  0  0  0
   10.0421    6.5576    4.2598 C   0  0  0  0  0  0  0  0  0  0  0  0
    9.4085    7.6312    3.9388 O   0  0  0  0  0  0  0  0  0  0  0  0
    9.3818    5.4568    4.8695 N   0  0  0  0  0  0  0  0  0  0  0  0
   10.0935    4.1665    5.0147 C   0  0  0  0  0  0  0  0  0  0  0  0
    9.7599    3.7565    6.4092 C   0  0  0  0  0  0  0  0  0  0  0  0
    8.4133    4.3677    6.6642 C   0  0  0  0  0  0  0  0  0  0  0  0
    8.0886    5.2484    5.4118 C   0  0  1  0  0  0  0  0  0  0  0  0
    7.2740    6.3489    5.8997 C   0  0  0  0  0  0  0  0  0  0  0  0
    5.9953    6.1120    5.9567 O   0  0  0  0  0  0  0  0  0  0  0  0
    7.6439    7.6235    6.3253 N   0  0  0  0  0  0  0  0  0  0  0  0
    6.6073    8.5723    6.7892 C   0  0  1  0  0  0  0  0  0  0  0  0
    7.1100    9.2261    8.0168 C   0  0  0  0  0  0  0  0  0  0  0  0
    6.2319   10.2161    8.6798 C   0  0  0  0  0  0  0  0  0  0  0  0
    4.9004    9.6558    9.1095 C   0  0  0  0  0  0  0  0  0  0  0  0
    4.0235   10.7009    9.7867 C   0  0  0  0  0  0  0  0  0  0  0  0
    4.6244   11.2541   10.9780 N   0  0  0  0  0  0  0  0  0  0  0  0
    6.3901    9.5232    5.6897 C   0  0  0  0  0  0  0  0  0  0  0  0
    7.1147    9.4017    4.6635 O   0  0  0  0  0  0  0  0  0  0  0  0
    5.4414   10.5693    5.6625 N   0  0  0  0  0  0  0  0  0  0  0  0
    5.3338   11.4280    4.5034 C   0  0  1  0  0  0  0  0  0  0  0  0
    3.9386   11.7834    4.1754 C   0  0  0  0  0  0  0  0  0  0  0  0
    3.1840   10.5353    3.8919 C   0  0  0  0  0  0  0  0  0  0  0  0
    3.7663    9.2372    3.9758 N   0  0  0  0  0  0  0  0  0  0  0  0
    1.9583   10.5764    3.5569 O   0  0  0  0  0  0  0  0  0  0  0  0
    6.2745   12.5993    4.5903 C   0  0  0  0  0  0  0  0  0  0  0  0
    7.0849   12.7271    5.5507 O   0  0  0  0  0  0  0  0  0  0  0  0
    6.1954   13.5394    3.5331 N   0  0  0  0  0  0  0  0  0  0  0  0
    7.0572   14.6974    3.4771 C   0  0  1  0  0  0  0  0  0  0  0  0
    7.7374   14.8551    2.1711 C   0  0  0  0  0  0  0  0  0  0  0  0
    6.9058   14.9828    0.9561 C   0  0  0  0  0  0  0  0  0  0  0  0
    5.9949   16.1685    0.9405 C   0  0  0  0  0  0  0  0  0  0  0  0
    5.1853   16.2059   -0.3578 C   0  0  0  0  0  0  0  0  0  0  0  0
    4.3779   15.0091   -0.4845 N   0  0  0  0  0  0  0  0  0  0  0  0
    6.4641   15.9435    3.9769 C   0  0  0  0  0  0  0  0  0  0  0  0
    5.2638   16.0240    4.4177 O   0  0  0  0  0  0  0  0  0  0  0  0
    7.2772   17.1130    3.9743 N   0  0  0  0  0  0  0  0  0  0  0  0
    6.7898   18.4004    4.4680 C   0  0  1  0  0  0  0  0  0  0  0  0
    7.5281   18.6679    5.7772 C   0  0  0  0  0  0  0  0  0  0  0  0
    9.0188   18.7233    5.5612 C   0  0  0  0  0  0  0  0  0  0  0  0
    9.7957   18.9795    6.8343 C   0  0  0  0  0  0  0  0  0  0  0  0
   11.2975   19.0241    6.5273 C   0  0  0  0  0  0  0  0  0  0  0  0
   11.5795   20.0894    5.5818 N   0  0  0  0  0  0  0  0  0  0  0  0
    6.9653   19.5046    3.5085 C   0  0  0  0  0  0  0  0  0  0  0  0
    7.5479   19.3828    2.2265 N   0  0  0  0  0  0  0  0  0  0  0  0
    6.5602   20.6624    3.8589 O   0  0  0  0  0  0  0  0  0  0  0  0
  1  2  1  0
  2  3  1  0
  3  4  1  1
  3  5  1  0
  5  6  1  6
  6  7  1  0
  7  8  2  0
  7  9  1  0
  9 10  1  1
 10 11  1  0
 11 12  1  0
 12 13  2  0
 12 14  1  0
  9 15  1  0
 15 16  1  0
 16 17  2  0
 18 16  1  6
 18 19  1  0
 19 20  1  0
 20 21  1  0
 21 22  1  0
 22 23  1  0
 23 24  2  0
 23 25  1  0
 25 26  1  1
 26 27  1  0
 27 28  1  0
 27 29  1  0
 25 30  1  0
 30 31  1  0
 31 32  2  0
 31 33  1  0
 33 34  1  6
 34 35  1  0
 35 36  1  0
 36 37  1  0
 37 38  1  0
 33 39  1  0
 39 40  1  0
 40 41  2  0
 40 42  1  0
 42 43  1  1
 42 44  1  0
 44 45  1  0
 45 46  1  0
 46 47  1  0
 47 48  1  0
 48 49  1  0
 48 50  2  0
  5 51  1  0
 51 52  2  0
 51 53  1  0
 53 54  1  0
 54 55  1  0
 55 56  1  0
 56 57  1  0
 57 58  1  1
 58 59  2  0
 58 60  1  0
 60 61  1  0
 61 62  1  1
 62 63  1  0
 63 64  1  0
 64 65  1  0
 65 66  1  0
 61 67  1  0
 67 68  2  0
 67 69  1  0
 69 70  1  0
 70 71  1  1
 71 72  1  0
 72 73  1  0
 72 74  2  0
 70 75  1  0
 75 76  2  0
 75 77  1  0
 77 78  1  0
 78 79  1  6
 79 80  1  0
 80 81  1  0
 81 82  1  0
 82 83  1  0
 78 84  1  0
 84 85  2  0
 84 86  1  0
 86 87  1  0
 87 88  1  1
 88 89  1  0
 89 90  1  0
 90 91  1  0
 91 92  1  0
 87 93  1  0
 93 94  1  0
 93 95  2  0
 22 18  1  0
 57 53  1  0
M  CHG  7  14  -1  38   1  43   1  50   1  66   1  83   1  92   1
M  END
>  <shape_align_shape_tanimoto>  (3) 
0.30196231423405273

>  <shape_align_color_tanimoto>  (3) 
0.047635358221051409

>  <metric>  (3) 
combo

>  <metric_score>  (3) 
0.175

>  <template_pid>  (3) 
4Z88

>  <template_shape_score>  (3) 
0.302

>  <template_color_score>  (3) 
0.048

>  <template_combo_score>  (3) 
0.175

$$$$
