2BRP_shape_pose
     RDKit          3D

 35 37  0  0  0  0  0  0  0  0999 V2000
  104.8081   28.5510   33.8884 C   0  0  0  0  0  0  0  0  0  0  0  0
  103.7783   29.4114   33.1043 C   0  0  0  0  0  0  0  0  0  0  0  0
  102.4352   28.8423   33.3338 C   0  0  0  0  0  0  0  0  0  0  0  0
  101.2368   29.4420   32.7455 C   0  0  0  0  0  0  0  0  0  0  0  0
  100.9979   29.4484   31.3097 C   0  0  0  0  0  0  0  0  0  0  0  0
  102.0465   30.1330   30.4659 C   0  0  0  0  0  0  0  0  0  0  0  0
  101.5743   30.1486   29.0619 C   0  0  0  0  0  0  0  0  0  0  0  0
  102.4152   30.8362   28.0531 C   0  0  0  0  0  0  0  0  0  0  0  0
  103.8251   30.4361   28.0227 C   0  0  0  0  0  0  0  0  0  0  0  0
  104.7999   30.9233   29.0272 C   0  0  0  0  0  0  0  0  0  0  0  0
  105.1414   32.3362   28.8619 N   0  0  0  0  0  0  0  0  0  0  0  0
  104.7500   33.4595   29.4256 C   0  0  0  0  0  0  0  0  0  0  0  0
  103.8757   33.8122   30.5202 C   0  0  0  0  0  0  0  0  0  0  0  0
  104.5109   34.4946   31.5884 C   0  0  0  0  0  0  0  0  0  0  0  0
  103.7909   34.9525   32.6686 C   0  0  0  0  0  0  0  0  0  0  0  0
  102.4299   34.7745   32.7691 C   0  0  0  0  0  0  0  0  0  0  0  0
  101.7606   35.2564   33.8781 O   0  0  0  0  0  0  0  0  0  0  0  0
  101.5795   34.2549   35.2356 S   0  0  0  0  0  0  0  0  0  0  0  0
   99.9700   33.6592   35.2468 N   0  0  0  0  0  0  0  0  0  0  0  0
  101.8740   35.0829   36.4670 O   0  0  0  0  0  0  0  0  0  0  0  0
  102.5993   33.1386   35.2302 O   0  0  0  0  0  0  0  0  0  0  0  0
  101.8074   34.1131   31.7356 C   0  0  0  0  0  0  0  0  0  0  0  0
  102.5465   33.6526   30.6442 C   0  0  0  0  0  0  0  0  0  0  0  0
  105.4674   34.5234   28.7954 C   0  0  0  0  0  0  0  0  0  0  0  0
  106.2936   33.9925   27.8429 C   0  0  0  0  0  0  0  0  0  0  0  0
  107.1771   34.5914   26.9749 C   0  0  0  0  0  0  0  0  0  0  0  0
  107.8977   33.8125   26.1034 C   0  0  0  0  0  0  0  0  0  0  0  0
  107.7195   32.4460   26.1178 C   0  0  0  0  0  0  0  0  0  0  0  0
  108.4540   31.6912   25.2345 O   0  0  0  0  0  0  0  0  0  0  0  0
  109.9732   31.0259   25.5183 S   0  0  0  0  0  0  0  0  0  0  0  0
  111.2044   32.2561   25.6081 N   0  0  0  0  0  0  0  0  0  0  0  0
  110.3257   30.1823   24.3106 O   0  0  0  0  0  0  0  0  0  0  0  0
  110.0677   30.2241   26.7669 O   0  0  0  0  0  0  0  0  0  0  0  0
  106.8143   31.8654   27.0114 C   0  0  0  0  0  0  0  0  0  0  0  0
  106.0836   32.6389   27.8930 C   0  0  0  0  0  0  0  0  0  0  0  0
  1  2  1  0
  2  3  1  0
  3  4  1  0
  4  5  1  0
  5  6  1  0
  6  7  1  0
  7  8  1  0
  8  9  1  0
  9 10  1  0
 10 11  1  0
 11 12  1  0
 12 13  1  0
 13 14  2  0
 14 15  1  0
 15 16  2  0
 16 17  1  0
 17 18  1  0
 18 19  1  0
 18 20  2  0
 18 21  2  0
 16 22  1  0
 22 23  2  0
 12 24  2  0
 24 25  1  0
 25 26  2  0
 26 27  1  0
 27 28  2  0
 28 29  1  0
 29 30  1  0
 30 31  1  0
 30 32  2  0
 30 33  2  0
 28 34  1  0
 34 35  2  0
 35 11  1  0
 23 13  1  0
 35 25  1  0
M  END
>  <shape_align_shape_tanimoto>  (1) 
0.59219234904585671

>  <shape_align_color_tanimoto>  (1) 
0.027381752544742986

>  <metric>  (1) 
shape

>  <metric_score>  (1) 
0.592

>  <template_pid>  (1) 
2BRP

>  <template_shape_score>  (1) 
0.592

>  <template_color_score>  (1) 
0.027

>  <template_combo_score>  (1) 
0.310

$$$$
2BRP_color_pose
     RDKit          3D

 35 37  0  0  0  0  0  0  0  0999 V2000
  103.4720   39.0832   35.1366 C   0  0  0  0  0  0  0  0  0  0  0  0
  102.0507   39.5448   34.9823 C   0  0  0  0  0  0  0  0  0  0  0  0
  101.7971   40.5224   33.9014 C   0  0  0  0  0  0  0  0  0  0  0  0
  102.0421   40.1485   32.5010 C   0  0  0  0  0  0  0  0  0  0  0  0
  103.4079   39.7514   32.0753 C   0  0  0  0  0  0  0  0  0  0  0  0
  103.3145   39.4726   30.5662 C   0  0  0  0  0  0  0  0  0  0  0  0
  104.6241   39.0604   30.0001 C   0  0  0  0  0  0  0  0  0  0  0  0
  105.2030   37.8177   30.5996 C   0  0  0  0  0  0  0  0  0  0  0  0
  104.3185   36.6081   30.4308 C   0  0  0  0  0  0  0  0  0  0  0  0
  104.8907   35.3600   31.0271 C   0  0  0  0  0  0  0  0  0  0  0  0
  104.0025   34.2411   30.8140 N   0  0  0  0  0  0  0  0  0  0  0  0
  104.0267   33.3398   29.8228 C   0  0  0  0  0  0  0  0  0  0  0  0
  104.9290   33.1422   28.7142 C   0  0  0  0  0  0  0  0  0  0  0  0
  105.3723   31.8299   28.4990 C   0  0  0  0  0  0  0  0  0  0  0  0
  106.2358   31.5178   27.4679 C   0  0  0  0  0  0  0  0  0  0  0  0
  106.6970   32.4929   26.6057 C   0  0  0  0  0  0  0  0  0  0  0  0
  107.5656   32.1580   25.5742 O   0  0  0  0  0  0  0  0  0  0  0  0
  109.2650   32.1698   25.7484 S   0  0  0  0  0  0  0  0  0  0  0  0
  109.8619   33.7520   26.0923 N   0  0  0  0  0  0  0  0  0  0  0  0
  109.6680   31.2195   26.8396 O   0  0  0  0  0  0  0  0  0  0  0  0
  109.8677   31.6977   24.4795 O   0  0  0  0  0  0  0  0  0  0  0  0
  106.2665   33.7894   26.8085 C   0  0  0  0  0  0  0  0  0  0  0  0
  105.3964   34.0875   27.8520 C   0  0  0  0  0  0  0  0  0  0  0  0
  102.9395   32.4823   30.0477 C   0  0  0  0  0  0  0  0  0  0  0  0
  102.2657   32.8786   31.1831 C   0  0  0  0  0  0  0  0  0  0  0  0
  101.1650   32.4353   31.8678 C   0  0  0  0  0  0  0  0  0  0  0  0
  100.7026   33.0541   33.0196 C   0  0  0  0  0  0  0  0  0  0  0  0
  101.3891   34.1594   33.4821 C   0  0  0  0  0  0  0  0  0  0  0  0
  100.9885   34.8306   34.6250 O   0  0  0  0  0  0  0  0  0  0  0  0
  101.5579   34.4256   36.1738 S   0  0  0  0  0  0  0  0  0  0  0  0
  100.7363   35.4295   37.3193 N   0  0  0  0  0  0  0  0  0  0  0  0
  103.0221   34.6980   36.3414 O   0  0  0  0  0  0  0  0  0  0  0  0
  101.2583   32.9792   36.4621 O   0  0  0  0  0  0  0  0  0  0  0  0
  102.4869   34.6052   32.8030 C   0  0  0  0  0  0  0  0  0  0  0  0
  102.9517   33.9821   31.6442 C   0  0  0  0  0  0  0  0  0  0  0  0
  1  2  1  0
  2  3  1  0
  3  4  1  0
  4  5  1  0
  5  6  1  0
  6  7  1  0
  7  8  1  0
  8  9  1  0
  9 10  1  0
 10 11  1  0
 11 12  1  0
 12 13  1  0
 13 14  2  0
 14 15  1  0
 15 16  2  0
 16 17  1  0
 17 18  1  0
 18 19  1  0
 18 20  2  0
 18 21  2  0
 16 22  1  0
 22 23  2  0
 12 24  2  0
 24 25  1  0
 25 26  2  0
 26 27  1  0
 27 28  2  0
 28 29  1  0
 29 30  1  0
 30 31  1  0
 30 32  2  0
 30 33  2  0
 28 34  1  0
 34 35  2  0
 35 11  1  0
 23 13  1  0
 35 25  1  0
M  END
>  <shape_align_shape_tanimoto>  (2) 
0.5125639206113124

>  <shape_align_color_tanimoto>  (2) 
0.085258749063135075

>  <metric>  (2) 
color

>  <metric_score>  (2) 
0.085

>  <template_pid>  (2) 
2BRP

>  <template_shape_score>  (2) 
0.513

>  <template_color_score>  (2) 
0.085

>  <template_combo_score>  (2) 
0.299

$$$$
2BRP_combo_pose
     RDKit          3D

 35 37  0  0  0  0  0  0  0  0999 V2000
  104.8081   28.5510   33.8884 C   0  0  0  0  0  0  0  0  0  0  0  0
  103.7783   29.4114   33.1043 C   0  0  0  0  0  0  0  0  0  0  0  0
  102.4352   28.8423   33.3338 C   0  0  0  0  0  0  0  0  0  0  0  0
  101.2368   29.4420   32.7455 C   0  0  0  0  0  0  0  0  0  0  0  0
  100.9979   29.4484   31.3097 C   0  0  0  0  0  0  0  0  0  0  0  0
  102.0465   30.1330   30.4659 C   0  0  0  0  0  0  0  0  0  0  0  0
  101.5743   30.1486   29.0619 C   0  0  0  0  0  0  0  0  0  0  0  0
  102.4152   30.8362   28.0531 C   0  0  0  0  0  0  0  0  0  0  0  0
  103.8251   30.4361   28.0227 C   0  0  0  0  0  0  0  0  0  0  0  0
  104.7999   30.9233   29.0272 C   0  0  0  0  0  0  0  0  0  0  0  0
  105.1414   32.3362   28.8619 N   0  0  0  0  0  0  0  0  0  0  0  0
  104.7500   33.4595   29.4256 C   0  0  0  0  0  0  0  0  0  0  0  0
  103.8757   33.8122   30.5202 C   0  0  0  0  0  0  0  0  0  0  0  0
  104.5109   34.4946   31.5884 C   0  0  0  0  0  0  0  0  0  0  0  0
  103.7909   34.9525   32.6686 C   0  0  0  0  0  0  0  0  0  0  0  0
  102.4299   34.7745   32.7691 C   0  0  0  0  0  0  0  0  0  0  0  0
  101.7606   35.2564   33.8781 O   0  0  0  0  0  0  0  0  0  0  0  0
  101.5795   34.2549   35.2356 S   0  0  0  0  0  0  0  0  0  0  0  0
   99.9700   33.6592   35.2468 N   0  0  0  0  0  0  0  0  0  0  0  0
  101.8740   35.0829   36.4670 O   0  0  0  0  0  0  0  0  0  0  0  0
  102.5993   33.1386   35.2302 O   0  0  0  0  0  0  0  0  0  0  0  0
  101.8074   34.1131   31.7356 C   0  0  0  0  0  0  0  0  0  0  0  0
  102.5465   33.6526   30.6442 C   0  0  0  0  0  0  0  0  0  0  0  0
  105.4674   34.5234   28.7954 C   0  0  0  0  0  0  0  0  0  0  0  0
  106.2936   33.9925   27.8429 C   0  0  0  0  0  0  0  0  0  0  0  0
  107.1771   34.5914   26.9749 C   0  0  0  0  0  0  0  0  0  0  0  0
  107.8977   33.8125   26.1034 C   0  0  0  0  0  0  0  0  0  0  0  0
  107.7195   32.4460   26.1178 C   0  0  0  0  0  0  0  0  0  0  0  0
  108.4540   31.6912   25.2345 O   0  0  0  0  0  0  0  0  0  0  0  0
  109.9732   31.0259   25.5183 S   0  0  0  0  0  0  0  0  0  0  0  0
  111.2044   32.2561   25.6081 N   0  0  0  0  0  0  0  0  0  0  0  0
  110.3257   30.1823   24.3106 O   0  0  0  0  0  0  0  0  0  0  0  0
  110.0677   30.2241   26.7669 O   0  0  0  0  0  0  0  0  0  0  0  0
  106.8143   31.8654   27.0114 C   0  0  0  0  0  0  0  0  0  0  0  0
  106.0836   32.6389   27.8930 C   0  0  0  0  0  0  0  0  0  0  0  0
  1  2  1  0
  2  3  1  0
  3  4  1  0
  4  5  1  0
  5  6  1  0
  6  7  1  0
  7  8  1  0
  8  9  1  0
  9 10  1  0
 10 11  1  0
 11 12  1  0
 12 13  1  0
 13 14  2  0
 14 15  1  0
 15 16  2  0
 16 17  1  0
 17 18  1  0
 18 19  1  0
 18 20  2  0
 18 21  2  0
 16 22  1  0
 22 23  2  0
 12 24  2  0
 24 25  1  0
 25 26  2  0
 26 27  1  0
 27 28  2  0
 28 29  1  0
 29 30  1  0
 30 31  1  0
 30 32  2  0
 30 33  2  0
 28 34  1  0
 34 35  2  0
 35 11  1  0
 23 13  1  0
 35 25  1  0
M  END
>  <shape_align_shape_tanimoto>  (3) 
0.59219234904585671

>  <shape_align_color_tanimoto>  (3) 
0.027381752544742986

>  <metric>  (3) 
combo

>  <metric_score>  (3) 
0.310

>  <template_pid>  (3) 
2BRP

>  <template_shape_score>  (3) 
0.592

>  <template_color_score>  (3) 
0.027

>  <template_combo_score>  (3) 
0.310

$$$$
