1IL9_shape_pose
     RDKit          3D

 12 13  0  0  0  0  0  0  0  0999 V2000
   -5.0864   -9.2274   22.5501 C   0  0  0  0  0  0  0  0  0  0  0  0
   -6.0318  -10.3688   22.4295 C   0  0  0  0  0  0  0  0  0  0  0  0
   -5.8890  -11.5225   21.7384 N   0  0  0  0  0  0  0  0  0  0  0  0
   -7.0023  -12.2758   21.9124 C   0  0  0  0  0  0  0  0  0  0  0  0
   -7.4139  -13.5138   21.4634 C   0  0  0  0  0  0  0  0  0  0  0  0
   -6.6526  -14.1989   20.7025 O   0  0  0  0  0  0  0  0  0  0  0  0
   -8.6067  -14.0546   21.7923 N   0  0  0  0  0  0  0  0  0  0  0  0
   -9.3932  -13.3004   22.6032 C   0  0  0  0  0  0  0  0  0  0  0  0
  -10.6608  -13.8277   22.9780 N   0  0  0  0  0  0  0  0  0  0  0  0
   -9.0132  -12.0906   23.0533 N   0  0  0  0  0  0  0  0  0  0  0  0
   -7.8385  -11.5299   22.7446 C   0  0  0  0  0  0  0  0  0  0  0  0
   -7.2018  -10.4158   23.0106 O   0  0  0  0  0  0  0  0  0  0  0  0
  1  2  1  0
  2  3  2  0
  3  4  1  0
  4  5  1  0
  5  6  2  0
  5  7  1  0
  7  8  1  0
  8  9  1  0
  8 10  2  0
 10 11  1  0
 11 12  1  0
 12  2  1  0
 11  4  2  0
M  END
>  <shape_align_shape_tanimoto>  (1) 
0.80455149328413678

>  <shape_align_color_tanimoto>  (1) 
0.16196241895505836

>  <metric>  (1) 
shape

>  <metric_score>  (1) 
0.805

>  <template_pid>  (1) 
1IL9

>  <template_shape_score>  (1) 
0.805

>  <template_color_score>  (1) 
0.162

>  <template_combo_score>  (1) 
0.483

$$$$
1IL9_color_pose
     RDKit          3D

 12 13  0  0  0  0  0  0  0  0999 V2000
   -5.4866   -9.0927   22.9947 C   0  0  0  0  0  0  0  0  0  0  0  0
   -6.2455  -10.3277   22.6797 C   0  0  0  0  0  0  0  0  0  0  0  0
   -7.4702  -10.7134   23.0836 N   0  0  0  0  0  0  0  0  0  0  0  0
   -7.7596  -11.9184   22.5469 C   0  0  0  0  0  0  0  0  0  0  0  0
   -8.8324  -12.7879   22.5989 C   0  0  0  0  0  0  0  0  0  0  0  0
   -9.8448  -12.4785   23.2892 O   0  0  0  0  0  0  0  0  0  0  0  0
   -8.7756  -13.9613   21.9042 N   0  0  0  0  0  0  0  0  0  0  0  0
   -7.6928  -14.2807   21.1724 C   0  0  0  0  0  0  0  0  0  0  0  0
   -7.5785  -15.4877   20.4293 N   0  0  0  0  0  0  0  0  0  0  0  0
   -6.6566  -13.4233   21.1321 N   0  0  0  0  0  0  0  0  0  0  0  0
   -6.6393  -12.2485   21.7899 C   0  0  0  0  0  0  0  0  0  0  0  0
   -5.7448  -11.2695   21.8907 O   0  0  0  0  0  0  0  0  0  0  0  0
  1  2  1  0
  2  3  2  0
  3  4  1  0
  4  5  1  0
  5  6  2  0
  5  7  1  0
  7  8  1  0
  8  9  1  0
  8 10  2  0
 10 11  1  0
 11 12  1  0
 12  2  1  0
 11  4  2  0
M  END
>  <shape_align_shape_tanimoto>  (2) 
0.79792118629723596

>  <shape_align_color_tanimoto>  (2) 
0.23402195429437719

>  <metric>  (2) 
color

>  <metric_score>  (2) 
0.234

>  <template_pid>  (2) 
1IL9

>  <template_shape_score>  (2) 
0.798

>  <template_color_score>  (2) 
0.234

>  <template_combo_score>  (2) 
0.516

$$$$
1IL9_combo_pose
     RDKit          3D

 12 13  0  0  0  0  0  0  0  0999 V2000
   -5.4866   -9.0927   22.9947 C   0  0  0  0  0  0  0  0  0  0  0  0
   -6.2455  -10.3277   22.6797 C   0  0  0  0  0  0  0  0  0  0  0  0
   -7.4702  -10.7134   23.0836 N   0  0  0  0  0  0  0  0  0  0  0  0
   -7.7596  -11.9184   22.5469 C   0  0  0  0  0  0  0  0  0  0  0  0
   -8.8324  -12.7879   22.5989 C   0  0  0  0  0  0  0  0  0  0  0  0
   -9.8448  -12.4785   23.2892 O   0  0  0  0  0  0  0  0  0  0  0  0
   -8.7756  -13.9613   21.9042 N   0  0  0  0  0  0  0  0  0  0  0  0
   -7.6928  -14.2807   21.1724 C   0  0  0  0  0  0  0  0  0  0  0  0
   -7.5785  -15.4877   20.4293 N   0  0  0  0  0  0  0  0  0  0  0  0
   -6.6566  -13.4233   21.1321 N   0  0  0  0  0  0  0  0  0  0  0  0
   -6.6393  -12.2485   21.7899 C   0  0  0  0  0  0  0  0  0  0  0  0
   -5.7448  -11.2695   21.8907 O   0  0  0  0  0  0  0  0  0  0  0  0
  1  2  1  0
  2  3  2  0
  3  4  1  0
  4  5  1  0
  5  6  2  0
  5  7  1  0
  7  8  1  0
  8  9  1  0
  8 10  2  0
 10 11  1  0
 11 12  1  0
 12  2  1  0
 11  4  2  0
M  END
>  <shape_align_shape_tanimoto>  (3) 
0.79792118629723596

>  <shape_align_color_tanimoto>  (3) 
0.23402195429437719

>  <metric>  (3) 
combo

>  <metric_score>  (3) 
0.516

>  <template_pid>  (3) 
1IL9

>  <template_shape_score>  (3) 
0.798

>  <template_color_score>  (3) 
0.234

>  <template_combo_score>  (3) 
0.516

$$$$
