3OVN_shape_pose
     RDKit          3D

 12 13  0  0  0  0  0  0  0  0999 V2000
   21.5513   10.2752   40.4030 C   0  0  0  0  0  0  0  0  0  0  0  0
   22.7193    9.3987   40.4690 N   0  0  0  0  0  0  0  0  0  0  0  0
   22.7363    8.1025   40.7864 N   0  0  0  0  0  0  0  0  0  0  0  0
   24.0067    7.6688   40.7300 C   0  0  0  0  0  0  0  0  0  0  0  0
   24.4185    6.2975   41.0152 C   0  0  0  0  0  0  0  0  0  0  0  0
   25.7159    5.7808   40.9756 C   0  0  0  0  0  0  0  0  0  0  0  0
   25.8785    4.4966   41.2714 C   0  0  0  0  0  0  0  0  0  0  0  0
   24.7874    3.7396   41.5984 C   0  0  0  0  0  0  0  0  0  0  0  0
   23.3890    4.9909   41.4698 S   0  0  0  0  0  0  0  0  0  0  0  0
   24.8300    8.7316   40.3619 C   0  0  0  0  0  0  0  0  0  0  0  0
   23.9922    9.8096   40.2039 C   0  0  0  0  0  0  0  0  0  0  0  0
   24.4269   11.1145   39.8262 N   0  0  0  0  0  0  0  0  0  0  0  0
  1  2  1  0
  2  3  1  0
  3  4  2  0
  4  5  1  0
  5  6  2  0
  6  7  1  0
  7  8  2  0
  8  9  1  0
  4 10  1  0
 10 11  2  0
 11 12  1  0
 11  2  1  0
  9  5  1  0
M  END
>  <shape_align_shape_tanimoto>  (1) 
0.74713488601078915

>  <shape_align_color_tanimoto>  (1) 
0.047617352470929637

>  <metric>  (1) 
shape

>  <metric_score>  (1) 
0.747

>  <template_pid>  (1) 
3OVN

>  <template_shape_score>  (1) 
0.747

>  <template_color_score>  (1) 
0.048

>  <template_combo_score>  (1) 
0.397

$$$$
3OVN_color_pose
     RDKit          3D

 12 13  0  0  0  0  0  0  0  0999 V2000
   24.4783   11.1174   39.9247 C   0  0  0  0  0  0  0  0  0  0  0  0
   24.0514    9.7776   40.2611 N   0  0  0  0  0  0  0  0  0  0  0  0
   24.8102    8.6833   40.4445 N   0  0  0  0  0  0  0  0  0  0  0  0
   24.0459    7.6494   40.7399 C   0  0  0  0  0  0  0  0  0  0  0  0
   24.5056    6.2373   41.0194 C   0  0  0  0  0  0  0  0  0  0  0  0
   25.7629    5.7597   41.0230 C   0  0  0  0  0  0  0  0  0  0  0  0
   25.9669    4.4637   41.2975 C   0  0  0  0  0  0  0  0  0  0  0  0
   24.8407    3.7252   41.5564 C   0  0  0  0  0  0  0  0  0  0  0  0
   23.4362    4.9179   41.4042 S   0  0  0  0  0  0  0  0  0  0  0  0
   22.7245    8.0364   40.7620 C   0  0  0  0  0  0  0  0  0  0  0  0
   22.7604    9.4011   40.4523 C   0  0  0  0  0  0  0  0  0  0  0  0
   21.6285   10.2856   40.3468 N   0  0  0  0  0  0  0  0  0  0  0  0
  1  2  1  0
  2  3  1  0
  3  4  2  0
  4  5  1  0
  5  6  2  0
  6  7  1  0
  7  8  2  0
  8  9  1  0
  4 10  1  0
 10 11  2  0
 11 12  1  0
 11  2  1  0
  9  5  1  0
M  END
>  <shape_align_shape_tanimoto>  (2) 
0.7397840587845782

>  <shape_align_color_tanimoto>  (2) 
0.16421952409374729

>  <metric>  (2) 
color

>  <metric_score>  (2) 
0.164

>  <template_pid>  (2) 
3OVN

>  <template_shape_score>  (2) 
0.740

>  <template_color_score>  (2) 
0.164

>  <template_combo_score>  (2) 
0.452

$$$$
3OVN_combo_pose
     RDKit          3D

 12 13  0  0  0  0  0  0  0  0999 V2000
   24.5369   11.1199   39.8289 C   0  0  0  0  0  0  0  0  0  0  0  0
   24.0689    9.7844   40.2075 N   0  0  0  0  0  0  0  0  0  0  0  0
   24.8218    8.6936   40.3869 N   0  0  0  0  0  0  0  0  0  0  0  0
   24.0354    7.6603   40.7283 C   0  0  0  0  0  0  0  0  0  0  0  0
   24.5109    6.3018   41.0046 C   0  0  0  0  0  0  0  0  0  0  0  0
   25.7429    5.7602   40.9955 C   0  0  0  0  0  0  0  0  0  0  0  0
   25.9048    4.4664   41.2919 C   0  0  0  0  0  0  0  0  0  0  0  0
   24.7772    3.7552   41.5940 C   0  0  0  0  0  0  0  0  0  0  0  0
   23.3982    4.9835   41.4527 S   0  0  0  0  0  0  0  0  0  0  0  0
   22.7247    8.0785   40.7764 C   0  0  0  0  0  0  0  0  0  0  0  0
   22.7761    9.4318   40.4411 C   0  0  0  0  0  0  0  0  0  0  0  0
   21.6318   10.2797   40.3656 N   0  0  0  0  0  0  0  0  0  0  0  0
  1  2  1  0
  2  3  1  0
  3  4  2  0
  4  5  1  0
  5  6  2  0
  6  7  1  0
  7  8  2  0
  8  9  1  0
  4 10  1  0
 10 11  2  0
 11 12  1  0
 11  2  1  0
  9  5  1  0
M  END
>  <shape_align_shape_tanimoto>  (3) 
0.74212731538506982

>  <shape_align_color_tanimoto>  (3) 
0.16392374393536907

>  <metric>  (3) 
combo

>  <metric_score>  (3) 
0.453

>  <template_pid>  (3) 
3OVN

>  <template_shape_score>  (3) 
0.742

>  <template_color_score>  (3) 
0.164

>  <template_combo_score>  (3) 
0.453

$$$$
