4RVM_shape_pose
     RDKit          3D

 28 32  0  0  0  0  0  0  0  0999 V2000
   12.5501   -5.3102   12.8247 N   0  0  0  0  0  0  0  0  0  0  0  0
   12.8281   -4.3519   12.2505 C   0  0  0  0  0  0  0  0  0  0  0  0
   13.1663   -3.1505   11.5440 C   0  0  0  0  0  0  0  0  0  0  0  0
   14.4207   -2.8894   11.0677 C   0  0  0  0  0  0  0  0  0  0  0  0
   14.6664   -1.7287   10.4123 C   0  0  0  0  0  0  0  0  0  0  0  0
   13.6543   -0.7928   10.2154 C   0  0  0  0  0  0  0  0  0  0  0  0
   12.3982   -1.0790   10.7030 C   0  0  0  0  0  0  0  0  0  0  0  0
   12.1842   -2.2489   11.3543 N   0  0  0  0  0  0  0  0  0  0  0  0
   14.1921    0.2401    9.5601 N   0  0  0  0  0  0  0  0  0  0  0  0
   15.4832   -0.0106    9.3421 C   0  0  0  0  0  0  0  0  0  0  0  0
   16.4262    0.7327    8.7163 N   0  0  0  0  0  0  0  0  0  0  0  0
   17.6988    0.2695    8.5964 C   0  0  0  0  0  0  0  0  0  0  0  0
   18.0955   -0.9526    9.0912 C   0  0  0  0  0  0  0  0  0  0  0  0
   19.4613   -1.4584    8.9637 C   0  0  0  0  0  0  0  0  0  0  0  0
   19.8738   -2.6507    9.5548 C   0  0  0  0  0  0  0  0  0  0  0  0
   21.1619   -3.1311    9.4391 C   0  0  0  0  0  0  0  0  0  0  0  0
   22.1053   -2.4236    8.7141 C   0  0  0  0  0  0  0  0  0  0  0  0
   23.4508   -3.0148    8.6055 C   0  0  0  0  0  0  0  0  0  0  0  0
   24.2388   -2.7337    9.8023 N   0  0  0  0  0  0  0  0  0  0  0  0
   25.6048   -2.9266    9.5415 C   0  0  0  0  0  0  0  0  0  0  0  0
   26.4719   -1.7448    9.2668 C   0  0  0  0  0  0  0  0  0  0  0  0
   26.1786   -0.6383   10.2552 C   0  0  0  0  0  0  0  0  0  0  0  0
   24.6987   -0.3075   10.1760 C   0  0  0  0  0  0  0  0  0  0  0  0
   23.9010   -1.5360   10.4551 C   0  0  0  0  0  0  0  0  0  0  0  0
   21.7254   -1.2377    8.1168 C   0  0  0  0  0  0  0  0  0  0  0  0
   20.4289   -0.7810    8.2487 C   0  0  0  0  0  0  0  0  0  0  0  0
   17.1339   -1.7142    9.7338 C   0  0  0  0  0  0  0  0  0  0  0  0
   15.8228   -1.2343    9.8582 C   0  0  0  0  0  0  0  0  0  0  0  0
  1  2  3  0
  2  3  1  0
  3  4  2  0
  4  5  1  0
  5  6  2  0
  6  7  1  0
  7  8  2  0
  6  9  1  0
  9 10  1  0
 10 11  2  0
 11 12  1  0
 12 13  2  0
 13 14  1  0
 14 15  2  0
 15 16  1  0
 16 17  2  0
 17 18  1  0
 18 19  1  0
 19 20  1  0
 20 21  1  0
 21 22  1  0
 22 23  1  0
 23 24  1  0
 17 25  1  0
 25 26  2  0
 13 27  1  0
 27 28  2  0
  8  3  1  0
 28 10  1  0
 28  5  1  0
 26 14  1  0
 24 19  1  0
M  CHG  1  19   1
M  END
>  <shape_align_shape_tanimoto>  (1) 
0.6748889629966428

>  <shape_align_color_tanimoto>  (1) 
0.055659902875653998

>  <metric>  (1) 
shape

>  <metric_score>  (1) 
0.675

>  <template_pid>  (1) 
4RVM

>  <template_shape_score>  (1) 
0.675

>  <template_color_score>  (1) 
0.056

>  <template_combo_score>  (1) 
0.365

$$$$
4RVM_color_pose
     RDKit          3D

 28 32  0  0  0  0  0  0  0  0999 V2000
   22.9269   -5.9250   11.2465 N   0  0  0  0  0  0  0  0  0  0  0  0
   22.6077   -4.9810   10.6318 C   0  0  0  0  0  0  0  0  0  0  0  0
   22.2071   -3.8087    9.8961 C   0  0  0  0  0  0  0  0  0  0  0  0
   20.8897   -3.3656    9.9339 C   0  0  0  0  0  0  0  0  0  0  0  0
   20.4906   -2.2442    9.2344 C   0  0  0  0  0  0  0  0  0  0  0  0
   21.3920   -1.5271    8.4736 C   0  0  0  0  0  0  0  0  0  0  0  0
   22.6989   -1.9918    8.4541 C   0  0  0  0  0  0  0  0  0  0  0  0
   23.0562   -3.0928    9.1504 N   0  0  0  0  0  0  0  0  0  0  0  0
   20.7854   -0.4811    7.8845 N   0  0  0  0  0  0  0  0  0  0  0  0
   19.4818   -0.5234    8.2684 C   0  0  0  0  0  0  0  0  0  0  0  0
   18.4315    0.2728    7.9797 N   0  0  0  0  0  0  0  0  0  0  0  0
   17.1974    0.0457    8.4777 C   0  0  0  0  0  0  0  0  0  0  0  0
   16.9452   -1.0293    9.3203 C   0  0  0  0  0  0  0  0  0  0  0  0
   15.6162   -1.2938    9.8716 C   0  0  0  0  0  0  0  0  0  0  0  0
   15.2088   -2.5915   10.1380 C   0  0  0  0  0  0  0  0  0  0  0  0
   13.9500   -2.8409   10.6607 C   0  0  0  0  0  0  0  0  0  0  0  0
   13.0898   -1.7901   10.9205 C   0  0  0  0  0  0  0  0  0  0  0  0
   11.7200   -2.0574   11.4902 C   0  0  0  0  0  0  0  0  0  0  0  0
   11.8279   -2.0384   12.9432 N   0  0  0  0  0  0  0  0  0  0  0  0
   10.5838   -2.3073   13.5801 C   0  0  0  0  0  0  0  0  0  0  0  0
    9.9936   -1.0352   14.1541 C   0  0  0  0  0  0  0  0  0  0  0  0
   10.8646   -0.5155   15.2775 C   0  0  0  0  0  0  0  0  0  0  0  0
   12.3089   -0.6780   14.9263 C   0  0  0  0  0  0  0  0  0  0  0  0
   12.3885   -0.7938   13.4212 C   0  0  0  0  0  0  0  0  0  0  0  0
   13.5150   -0.5033   10.6479 C   0  0  0  0  0  0  0  0  0  0  0  0
   14.7652   -0.2281   10.1264 C   0  0  0  0  0  0  0  0  0  0  0  0
   18.0243   -1.8643    9.6293 C   0  0  0  0  0  0  0  0  0  0  0  0
   19.2728   -1.6026    9.1024 C   0  0  0  0  0  0  0  0  0  0  0  0
  1  2  3  0
  2  3  1  0
  3  4  2  0
  4  5  1  0
  5  6  2  0
  6  7  1  0
  7  8  2  0
  6  9  1  0
  9 10  1  0
 10 11  2  0
 11 12  1  0
 12 13  2  0
 13 14  1  0
 14 15  2  0
 15 16  1  0
 16 17  2  0
 17 18  1  0
 18 19  1  0
 19 20  1  0
 20 21  1  0
 21 22  1  0
 22 23  1  0
 23 24  1  0
 17 25  1  0
 25 26  2  0
 13 27  1  0
 27 28  2  0
  8  3  1  0
 28 10  1  0
 28  5  1  0
 26 14  1  0
 24 19  1  0
M  CHG  1  19   1
M  END
>  <shape_align_shape_tanimoto>  (2) 
0.60913796526042174

>  <shape_align_color_tanimoto>  (2) 
0.17798542616293778

>  <metric>  (2) 
color

>  <metric_score>  (2) 
0.178

>  <template_pid>  (2) 
4RVM

>  <template_shape_score>  (2) 
0.609

>  <template_color_score>  (2) 
0.178

>  <template_combo_score>  (2) 
0.394

$$$$
4RVM_combo_pose
     RDKit          3D

 28 32  0  0  0  0  0  0  0  0999 V2000
   22.9269   -5.9250   11.2465 N   0  0  0  0  0  0  0  0  0  0  0  0
   22.6077   -4.9810   10.6318 C   0  0  0  0  0  0  0  0  0  0  0  0
   22.2071   -3.8087    9.8961 C   0  0  0  0  0  0  0  0  0  0  0  0
   20.8897   -3.3656    9.9339 C   0  0  0  0  0  0  0  0  0  0  0  0
   20.4906   -2.2442    9.2344 C   0  0  0  0  0  0  0  0  0  0  0  0
   21.3920   -1.5271    8.4736 C   0  0  0  0  0  0  0  0  0  0  0  0
   22.6989   -1.9918    8.4541 C   0  0  0  0  0  0  0  0  0  0  0  0
   23.0562   -3.0928    9.1504 N   0  0  0  0  0  0  0  0  0  0  0  0
   20.7854   -0.4811    7.8845 N   0  0  0  0  0  0  0  0  0  0  0  0
   19.4818   -0.5234    8.2684 C   0  0  0  0  0  0  0  0  0  0  0  0
   18.4315    0.2728    7.9797 N   0  0  0  0  0  0  0  0  0  0  0  0
   17.1974    0.0457    8.4777 C   0  0  0  0  0  0  0  0  0  0  0  0
   16.9452   -1.0293    9.3203 C   0  0  0  0  0  0  0  0  0  0  0  0
   15.6162   -1.2938    9.8716 C   0  0  0  0  0  0  0  0  0  0  0  0
   15.2088   -2.5915   10.1380 C   0  0  0  0  0  0  0  0  0  0  0  0
   13.9500   -2.8409   10.6607 C   0  0  0  0  0  0  0  0  0  0  0  0
   13.0898   -1.7901   10.9205 C   0  0  0  0  0  0  0  0  0  0  0  0
   11.7200   -2.0574   11.4902 C   0  0  0  0  0  0  0  0  0  0  0  0
   11.8279   -2.0384   12.9432 N   0  0  0  0  0  0  0  0  0  0  0  0
   10.5838   -2.3073   13.5801 C   0  0  0  0  0  0  0  0  0  0  0  0
    9.9936   -1.0352   14.1541 C   0  0  0  0  0  0  0  0  0  0  0  0
   10.8646   -0.5155   15.2775 C   0  0  0  0  0  0  0  0  0  0  0  0
   12.3089   -0.6780   14.9263 C   0  0  0  0  0  0  0  0  0  0  0  0
   12.3885   -0.7938   13.4212 C   0  0  0  0  0  0  0  0  0  0  0  0
   13.5150   -0.5033   10.6479 C   0  0  0  0  0  0  0  0  0  0  0  0
   14.7652   -0.2281   10.1264 C   0  0  0  0  0  0  0  0  0  0  0  0
   18.0243   -1.8643    9.6293 C   0  0  0  0  0  0  0  0  0  0  0  0
   19.2728   -1.6026    9.1024 C   0  0  0  0  0  0  0  0  0  0  0  0
  1  2  3  0
  2  3  1  0
  3  4  2  0
  4  5  1  0
  5  6  2  0
  6  7  1  0
  7  8  2  0
  6  9  1  0
  9 10  1  0
 10 11  2  0
 11 12  1  0
 12 13  2  0
 13 14  1  0
 14 15  2  0
 15 16  1  0
 16 17  2  0
 17 18  1  0
 18 19  1  0
 19 20  1  0
 20 21  1  0
 21 22  1  0
 22 23  1  0
 23 24  1  0
 17 25  1  0
 25 26  2  0
 13 27  1  0
 27 28  2  0
  8  3  1  0
 28 10  1  0
 28  5  1  0
 26 14  1  0
 24 19  1  0
M  CHG  1  19   1
M  END
>  <shape_align_shape_tanimoto>  (3) 
0.60913796526042174

>  <shape_align_color_tanimoto>  (3) 
0.17798542616293778

>  <metric>  (3) 
combo

>  <metric_score>  (3) 
0.394

>  <template_pid>  (3) 
4RVM

>  <template_shape_score>  (3) 
0.609

>  <template_color_score>  (3) 
0.178

>  <template_combo_score>  (3) 
0.394

$$$$
