5HTZ_shape_pose
     RDKit          3D

 26 28  0  0  0  0  0  0  0  0999 V2000
   26.4129   21.7483   13.3177 C   0  0  0  0  0  0  0  0  0  0  0  0
   26.9352   20.6273   12.5090 C   0  0  0  0  0  0  0  0  0  0  0  0
   27.3718   19.7191   11.8392 C   0  0  0  0  0  0  0  0  0  0  0  0
   27.8816   18.6468   11.0207 C   0  0  0  0  0  0  0  0  0  0  0  0
   29.2112   18.6029   10.6502 C   0  0  0  0  0  0  0  0  0  0  0  0
   29.6571   17.5743    9.8761 N   0  0  0  0  0  0  0  0  0  0  0  0
   28.8245   16.5974    9.4645 C   0  0  0  0  0  0  0  0  0  0  0  0
   27.5055   16.6377    9.8300 C   0  0  0  0  0  0  0  0  0  0  0  0
   26.5837   15.5763    9.3872 C   0  0  0  0  0  0  0  0  0  0  0  0
   26.8065   14.4708    8.6215 C   0  0  0  0  0  0  0  0  0  0  0  0
   25.7867   13.6511    8.3589 C   0  0  0  0  0  0  0  0  0  0  0  0
   25.9855   12.1705    7.3590 Cl  0  0  0  0  0  0  0  0  0  0  0  0
   24.5531   13.9476    8.8665 C   0  0  0  0  0  0  0  0  0  0  0  0
   23.2657   13.2683    8.7628 C   0  0  2  0  0  0  0  0  0  0  0  0
   23.3156   11.8689    9.3072 C   0  0  0  0  0  0  0  0  0  0  0  0
   22.8494   13.2928    7.3013 C   0  0  0  0  0  0  0  0  0  0  0  0
   22.9583   14.9881    6.7705 S   0  0  0  0  0  0  0  0  0  0  0  0
   24.3790   15.3505    6.3944 O   0  0  0  0  0  0  0  0  0  0  0  0
   22.0550   15.2027    5.6018 O   0  0  0  0  0  0  0  0  0  0  0  0
   22.4334   16.0242    8.0639 N   0  0  0  0  0  0  0  0  0  0  0  0
   22.3355   17.4323    7.8144 C   0  0  0  0  0  0  0  0  0  0  0  0
   22.1264   15.4285    9.3057 C   0  0  0  0  0  0  0  0  0  0  0  0
   21.7008   16.1509   10.2858 N   0  0  0  0  0  0  0  0  0  0  0  0
   22.2780   14.0285    9.5041 N   0  0  0  0  0  0  0  0  0  0  0  0
   24.8249   15.5143    9.8004 S   0  0  0  0  0  0  0  0  0  0  0  0
   26.9933   17.6518   10.6119 C   0  0  0  0  0  0  0  0  0  0  0  0
  1  2  1  0
  2  3  3  0
  3  4  1  0
  4  5  2  0
  5  6  1  0
  6  7  2  0
  7  8  1  0
  8  9  1  0
  9 10  2  0
 10 11  1  0
 11 12  1  0
 11 13  2  0
 13 14  1  0
 14 15  1  1
 14 16  1  0
 16 17  1  0
 17 18  2  0
 17 19  2  0
 17 20  1  0
 20 21  1  0
 20 22  1  0
 22 23  2  0
 22 24  1  0
 13 25  1  0
  8 26  2  0
 26  4  1  0
 25  9  1  0
 24 14  1  0
M  CHG  1  23   1
M  END
>  <shape_align_shape_tanimoto>  (1) 
0.75968242912730533

>  <shape_align_color_tanimoto>  (1) 
0.070992277487441025

>  <metric>  (1) 
shape

>  <metric_score>  (1) 
0.760

>  <template_pid>  (1) 
5HTZ

>  <template_shape_score>  (1) 
0.760

>  <template_color_score>  (1) 
0.071

>  <template_combo_score>  (1) 
0.415

$$$$
5HTZ_color_pose
     RDKit          3D

 26 28  0  0  0  0  0  0  0  0999 V2000
   25.6252   21.4161   13.7787 C   0  0  0  0  0  0  0  0  0  0  0  0
   26.2243   20.4666   12.8919 C   0  0  0  0  0  0  0  0  0  0  0  0
   26.7336   19.6870   12.1607 C   0  0  0  0  0  0  0  0  0  0  0  0
   27.3517   18.7547   11.3093 C   0  0  0  0  0  0  0  0  0  0  0  0
   28.6554   18.8917   10.9571 C   0  0  0  0  0  0  0  0  0  0  0  0
   29.2674   18.0398   10.1630 N   0  0  0  0  0  0  0  0  0  0  0  0
   28.6224   17.0025    9.6720 C   0  0  0  0  0  0  0  0  0  0  0  0
   27.3245   16.8352   10.0014 C   0  0  0  0  0  0  0  0  0  0  0  0
   26.5919   15.7075    9.4784 C   0  0  0  0  0  0  0  0  0  0  0  0
   26.9584   14.7148    8.6717 C   0  0  0  0  0  0  0  0  0  0  0  0
   26.0545   13.8134    8.3625 C   0  0  0  0  0  0  0  0  0  0  0  0
   26.4452   12.4604    7.3007 Cl  0  0  0  0  0  0  0  0  0  0  0  0
   24.8424   13.9311    8.8583 C   0  0  0  0  0  0  0  0  0  0  0  0
   23.6793   13.0757    8.6692 C   0  0  2  0  0  0  0  0  0  0  0  0
   23.9704   11.7061    9.1146 C   0  0  0  0  0  0  0  0  0  0  0  0
   23.2715   13.0126    7.2424 C   0  0  0  0  0  0  0  0  0  0  0  0
   22.9361   14.5958    6.6170 S   0  0  0  0  0  0  0  0  0  0  0  0
   24.0044   15.1456    5.8071 O   0  0  0  0  0  0  0  0  0  0  0  0
   21.7274   14.4946    5.7642 O   0  0  0  0  0  0  0  0  0  0  0  0
   22.5193   15.5794    7.9297 N   0  0  0  0  0  0  0  0  0  0  0  0
   22.4857   16.9675    7.7358 C   0  0  0  0  0  0  0  0  0  0  0  0
   22.2309   14.9509    9.1372 C   0  0  0  0  0  0  0  0  0  0  0  0
   21.5890   15.6143   10.0078 N   0  0  0  0  0  0  0  0  0  0  0  0
   22.6159   13.6393    9.4202 N   0  0  0  0  0  0  0  0  0  0  0  0
   24.8720   15.3915    9.8502 S   0  0  0  0  0  0  0  0  0  0  0  0
   26.6794   17.6936   10.8114 C   0  0  0  0  0  0  0  0  0  0  0  0
  1  2  1  0
  2  3  3  0
  3  4  1  0
  4  5  2  0
  5  6  1  0
  6  7  2  0
  7  8  1  0
  8  9  1  0
  9 10  2  0
 10 11  1  0
 11 12  1  0
 11 13  2  0
 13 14  1  0
 14 15  1  1
 14 16  1  0
 16 17  1  0
 17 18  2  0
 17 19  2  0
 17 20  1  0
 20 21  1  0
 20 22  1  0
 22 23  2  0
 22 24  1  0
 13 25  1  0
  8 26  2  0
 26  4  1  0
 25  9  1  0
 24 14  1  0
M  CHG  1  23   1
M  END
>  <shape_align_shape_tanimoto>  (2) 
0.725817600832941

>  <shape_align_color_tanimoto>  (2) 
0.081537924722653712

>  <metric>  (2) 
color

>  <metric_score>  (2) 
0.082

>  <template_pid>  (2) 
5HTZ

>  <template_shape_score>  (2) 
0.726

>  <template_color_score>  (2) 
0.082

>  <template_combo_score>  (2) 
0.404

$$$$
5HTZ_combo_pose
     RDKit          3D

 26 28  0  0  0  0  0  0  0  0999 V2000
   26.4129   21.7483   13.3177 C   0  0  0  0  0  0  0  0  0  0  0  0
   26.9352   20.6273   12.5090 C   0  0  0  0  0  0  0  0  0  0  0  0
   27.3718   19.7191   11.8392 C   0  0  0  0  0  0  0  0  0  0  0  0
   27.8816   18.6468   11.0207 C   0  0  0  0  0  0  0  0  0  0  0  0
   29.2112   18.6029   10.6502 C   0  0  0  0  0  0  0  0  0  0  0  0
   29.6571   17.5743    9.8761 N   0  0  0  0  0  0  0  0  0  0  0  0
   28.8245   16.5974    9.4645 C   0  0  0  0  0  0  0  0  0  0  0  0
   27.5055   16.6377    9.8300 C   0  0  0  0  0  0  0  0  0  0  0  0
   26.5837   15.5763    9.3872 C   0  0  0  0  0  0  0  0  0  0  0  0
   26.8065   14.4708    8.6215 C   0  0  0  0  0  0  0  0  0  0  0  0
   25.7867   13.6511    8.3589 C   0  0  0  0  0  0  0  0  0  0  0  0
   25.9855   12.1705    7.3590 Cl  0  0  0  0  0  0  0  0  0  0  0  0
   24.5531   13.9476    8.8665 C   0  0  0  0  0  0  0  0  0  0  0  0
   23.2657   13.2683    8.7628 C   0  0  2  0  0  0  0  0  0  0  0  0
   23.3156   11.8689    9.3072 C   0  0  0  0  0  0  0  0  0  0  0  0
   22.8494   13.2928    7.3013 C   0  0  0  0  0  0  0  0  0  0  0  0
   22.9583   14.9881    6.7705 S   0  0  0  0  0  0  0  0  0  0  0  0
   24.3790   15.3505    6.3944 O   0  0  0  0  0  0  0  0  0  0  0  0
   22.0550   15.2027    5.6018 O   0  0  0  0  0  0  0  0  0  0  0  0
   22.4334   16.0242    8.0639 N   0  0  0  0  0  0  0  0  0  0  0  0
   22.3355   17.4323    7.8144 C   0  0  0  0  0  0  0  0  0  0  0  0
   22.1264   15.4285    9.3057 C   0  0  0  0  0  0  0  0  0  0  0  0
   21.7008   16.1509   10.2858 N   0  0  0  0  0  0  0  0  0  0  0  0
   22.2780   14.0285    9.5041 N   0  0  0  0  0  0  0  0  0  0  0  0
   24.8249   15.5143    9.8004 S   0  0  0  0  0  0  0  0  0  0  0  0
   26.9933   17.6518   10.6119 C   0  0  0  0  0  0  0  0  0  0  0  0
  1  2  1  0
  2  3  3  0
  3  4  1  0
  4  5  2  0
  5  6  1  0
  6  7  2  0
  7  8  1  0
  8  9  1  0
  9 10  2  0
 10 11  1  0
 11 12  1  0
 11 13  2  0
 13 14  1  0
 14 15  1  1
 14 16  1  0
 16 17  1  0
 17 18  2  0
 17 19  2  0
 17 20  1  0
 20 21  1  0
 20 22  1  0
 22 23  2  0
 22 24  1  0
 13 25  1  0
  8 26  2  0
 26  4  1  0
 25  9  1  0
 24 14  1  0
M  CHG  1  23   1
M  END
>  <shape_align_shape_tanimoto>  (3) 
0.75968242912730533

>  <shape_align_color_tanimoto>  (3) 
0.070992277487441025

>  <metric>  (3) 
combo

>  <metric_score>  (3) 
0.415

>  <template_pid>  (3) 
5HTZ

>  <template_shape_score>  (3) 
0.760

>  <template_color_score>  (3) 
0.071

>  <template_combo_score>  (3) 
0.415

$$$$
