4A4L_shape_pose
     RDKit          3D

 34 37  0  0  0  0  0  0  0  0999 V2000
   10.8372   -5.1431   15.6080 C   0  0  0  0  0  0  0  0  0  0  0  0
    9.4099   -5.2537   15.4580 N   0  0  0  0  0  0  0  0  0  0  0  0
    8.8511   -6.0451   14.4942 C   0  0  0  0  0  0  0  0  0  0  0  0
    7.4945   -5.9492   14.6019 C   0  0  0  0  0  0  0  0  0  0  0  0
    6.5108   -6.6311   13.7688 C   0  0  0  0  0  0  0  0  0  0  0  0
    5.1176   -6.4439   13.9717 N   0  0  0  0  0  0  0  0  0  0  0  0
    6.9352   -7.3968   12.8575 O   0  0  0  0  0  0  0  0  0  0  0  0
    7.2645   -5.0818   15.6523 C   0  0  0  0  0  0  0  0  0  0  0  0
    8.4861   -4.6505   16.1834 C   0  0  0  0  0  0  0  0  0  0  0  0
    8.5471   -3.7444   17.3106 C   0  0  0  0  0  0  0  0  0  0  0  0
    9.7094   -3.2273   17.8326 C   0  0  0  0  0  0  0  0  0  0  0  0
    9.6919   -2.3174   18.8951 C   0  0  0  0  0  0  0  0  0  0  0  0
    8.4957   -1.9878   19.3634 N   0  0  0  0  0  0  0  0  0  0  0  0
    7.3153   -2.4770   18.8767 C   0  0  0  0  0  0  0  0  0  0  0  0
    6.1444   -1.9896   19.4756 N   0  0  0  0  0  0  0  0  0  0  0  0
    4.8432   -2.5337   19.3943 C   0  0  0  0  0  0  0  0  0  0  0  0
    4.5132   -3.7127   18.7691 C   0  0  0  0  0  0  0  0  0  0  0  0
    3.2234   -4.2122   18.7171 C   0  0  0  0  0  0  0  0  0  0  0  0
    2.8923   -5.4540   18.1024 N   0  0  0  0  0  0  0  0  0  0  0  0
    3.9456   -6.4170   17.8407 C   0  0  0  0  0  0  0  0  0  0  0  0
    3.3895   -7.7274   17.3369 C   0  0  0  0  0  0  0  0  0  0  0  0
    2.4423   -7.5684   16.2725 N   0  0  0  0  0  0  0  0  0  0  0  0
    1.6348   -8.7719   16.2123 C   0  0  0  0  0  0  0  0  0  0  0  0
    1.5959   -6.4381   16.3739 C   0  0  0  0  0  0  0  0  0  0  0  0
    1.5305   -5.7804   17.7269 C   0  0  0  0  0  0  0  0  0  0  0  0
    2.1836   -3.5249   19.3079 C   0  0  0  0  0  0  0  0  0  0  0  0
    2.4823   -2.3423   19.9410 C   0  0  0  0  0  0  0  0  0  0  0  0
    3.7677   -1.8537   19.9895 C   0  0  0  0  0  0  0  0  0  0  0  0
    3.9445   -0.6512   20.6658 O   0  0  0  0  0  0  0  0  0  0  0  0
    4.1482   -0.6831   22.0553 C   0  0  0  0  0  0  0  0  0  0  0  0
    5.2451   -1.4036   22.4330 F   0  0  0  0  0  0  0  0  0  0  0  0
    3.0421   -1.2641   22.6667 F   0  0  0  0  0  0  0  0  0  0  0  0
    4.3384    0.6020   22.5484 F   0  0  0  0  0  0  0  0  0  0  0  0
    7.3968   -3.3341   17.8713 N   0  0  0  0  0  0  0  0  0  0  0  0
  1  2  1  0
  2  3  1  0
  3  4  2  0
  4  5  1  0
  5  6  1  0
  5  7  2  0
  4  8  1  0
  8  9  2  0
  9 10  1  0
 10 11  2  0
 11 12  1  0
 12 13  2  0
 13 14  1  0
 14 15  1  0
 15 16  1  0
 16 17  2  0
 17 18  1  0
 18 19  1  0
 19 20  1  0
 20 21  1  0
 21 22  1  0
 22 23  1  0
 22 24  1  0
 24 25  1  0
 18 26  2  0
 26 27  1  0
 27 28  2  0
 28 29  1  0
 29 30  1  0
 30 31  1  0
 30 32  1  0
 30 33  1  0
 14 34  2  0
  9  2  1  0
 34 10  1  0
 28 16  1  0
 25 19  1  0
M  CHG  1  22   1
M  END
>  <shape_align_shape_tanimoto>  (1) 
0.62080177495367861

>  <shape_align_color_tanimoto>  (1) 
0.041120262554818654

>  <metric>  (1) 
shape

>  <metric_score>  (1) 
0.621

>  <template_pid>  (1) 
4A4L

>  <template_shape_score>  (1) 
0.621

>  <template_color_score>  (1) 
0.041

>  <template_combo_score>  (1) 
0.331

$$$$
4A4L_color_pose
     RDKit          3D

 34 37  0  0  0  0  0  0  0  0999 V2000
    6.8092   -4.2616   14.8716 C   0  0  0  0  0  0  0  0  0  0  0  0
    8.1284   -4.8880   14.9083 N   0  0  0  0  0  0  0  0  0  0  0  0
    8.8005   -5.4353   13.8783 C   0  0  0  0  0  0  0  0  0  0  0  0
   10.0268   -5.9276   14.3410 C   0  0  0  0  0  0  0  0  0  0  0  0
   11.0422   -6.5921   13.5302 C   0  0  0  0  0  0  0  0  0  0  0  0
   12.2403   -7.0000   14.1845 N   0  0  0  0  0  0  0  0  0  0  0  0
   10.8230   -6.7754   12.3059 O   0  0  0  0  0  0  0  0  0  0  0  0
   10.0442   -5.6446   15.6902 C   0  0  0  0  0  0  0  0  0  0  0  0
    8.8671   -5.0024   16.0304 C   0  0  0  0  0  0  0  0  0  0  0  0
    8.4651   -4.5327   17.3503 C   0  0  0  0  0  0  0  0  0  0  0  0
    9.2726   -4.7185   18.4536 C   0  0  0  0  0  0  0  0  0  0  0  0
    8.8732   -4.2758   19.7150 C   0  0  0  0  0  0  0  0  0  0  0  0
    7.6670   -3.6580   19.8177 N   0  0  0  0  0  0  0  0  0  0  0  0
    6.8854   -3.4783   18.7456 C   0  0  0  0  0  0  0  0  0  0  0  0
    5.6324   -2.8160   18.9498 N   0  0  0  0  0  0  0  0  0  0  0  0
    4.3837   -3.4258   18.7185 C   0  0  0  0  0  0  0  0  0  0  0  0
    4.3174   -4.6950   18.1853 C   0  0  0  0  0  0  0  0  0  0  0  0
    3.1377   -5.3466   17.8985 C   0  0  0  0  0  0  0  0  0  0  0  0
    3.0700   -6.6566   17.3643 N   0  0  0  0  0  0  0  0  0  0  0  0
    1.8628   -7.2265   16.7723 C   0  0  0  0  0  0  0  0  0  0  0  0
    1.4459   -8.3202   17.7277 C   0  0  0  0  0  0  0  0  0  0  0  0
    2.4856   -9.0732   18.3097 N   0  0  0  0  0  0  0  0  0  0  0  0
    2.4350   -8.9140   19.7708 C   0  0  0  0  0  0  0  0  0  0  0  0
    3.8050   -8.9452   17.8263 C   0  0  0  0  0  0  0  0  0  0  0  0
    4.2235   -7.5721   17.3772 C   0  0  0  0  0  0  0  0  0  0  0  0
    1.9699   -4.6501   18.1774 C   0  0  0  0  0  0  0  0  0  0  0  0
    2.0065   -3.3587   18.7200 C   0  0  0  0  0  0  0  0  0  0  0  0
    3.2254   -2.7467   18.9911 C   0  0  0  0  0  0  0  0  0  0  0  0
    3.1677   -1.4725   19.5294 O   0  0  0  0  0  0  0  0  0  0  0  0
    3.1060   -1.3641   20.9387 C   0  0  0  0  0  0  0  0  0  0  0  0
    4.2142   -1.9420   21.4796 F   0  0  0  0  0  0  0  0  0  0  0  0
    2.9067   -0.0644   21.3467 F   0  0  0  0  0  0  0  0  0  0  0  0
    1.9832   -2.1049   21.3127 F   0  0  0  0  0  0  0  0  0  0  0  0
    7.2651   -3.9030   17.5279 N   0  0  0  0  0  0  0  0  0  0  0  0
  1  2  1  0
  2  3  1  0
  3  4  2  0
  4  5  1  0
  5  6  1  0
  5  7  2  0
  4  8  1  0
  8  9  2  0
  9 10  1  0
 10 11  2  0
 11 12  1  0
 12 13  2  0
 13 14  1  0
 14 15  1  0
 15 16  1  0
 16 17  2  0
 17 18  1  0
 18 19  1  0
 19 20  1  0
 20 21  1  0
 21 22  1  0
 22 23  1  0
 22 24  1  0
 24 25  1  0
 18 26  2  0
 26 27  1  0
 27 28  2  0
 28 29  1  0
 29 30  1  0
 30 31  1  0
 30 32  1  0
 30 33  1  0
 14 34  2  0
  9  2  1  0
 34 10  1  0
 28 16  1  0
 25 19  1  0
M  CHG  1  22   1
M  END
>  <shape_align_shape_tanimoto>  (2) 
0.52701382880853886

>  <shape_align_color_tanimoto>  (2) 
0.093649875946708205

>  <metric>  (2) 
color

>  <metric_score>  (2) 
0.094

>  <template_pid>  (2) 
4A4L

>  <template_shape_score>  (2) 
0.527

>  <template_color_score>  (2) 
0.094

>  <template_combo_score>  (2) 
0.310

$$$$
4A4L_combo_pose
     RDKit          3D

 34 37  0  0  0  0  0  0  0  0999 V2000
    6.4080   -4.9353   15.5680 C   0  0  0  0  0  0  0  0  0  0  0  0
    7.8455   -5.1218   15.5174 N   0  0  0  0  0  0  0  0  0  0  0  0
    8.4566   -5.8324   14.5690 C   0  0  0  0  0  0  0  0  0  0  0  0
    9.7983   -5.7926   14.8063 C   0  0  0  0  0  0  0  0  0  0  0  0
   10.8543   -6.4376   14.0151 C   0  0  0  0  0  0  0  0  0  0  0  0
   10.4880   -7.1919   12.8761 N   0  0  0  0  0  0  0  0  0  0  0  0
   12.0521   -6.3100   14.3591 O   0  0  0  0  0  0  0  0  0  0  0  0
    9.9658   -5.0292   15.9359 C   0  0  0  0  0  0  0  0  0  0  0  0
    8.7174   -4.5981   16.3945 C   0  0  0  0  0  0  0  0  0  0  0  0
    8.4929   -3.7486   17.5545 C   0  0  0  0  0  0  0  0  0  0  0  0
    9.6148   -3.2668   18.2201 C   0  0  0  0  0  0  0  0  0  0  0  0
    9.4700   -2.4209   19.2883 C   0  0  0  0  0  0  0  0  0  0  0  0
    8.2294   -2.0852   19.6573 N   0  0  0  0  0  0  0  0  0  0  0  0
    7.1036   -2.5370   19.0322 C   0  0  0  0  0  0  0  0  0  0  0  0
    5.8615   -2.0639   19.4942 N   0  0  0  0  0  0  0  0  0  0  0  0
    4.5954   -2.6512   19.3001 C   0  0  0  0  0  0  0  0  0  0  0  0
    4.3885   -3.8938   18.7331 C   0  0  0  0  0  0  0  0  0  0  0  0
    3.1439   -4.4556   18.5573 C   0  0  0  0  0  0  0  0  0  0  0  0
    2.9200   -5.7544   18.0208 N   0  0  0  0  0  0  0  0  0  0  0  0
    1.6262   -6.1168   17.4190 C   0  0  0  0  0  0  0  0  0  0  0  0
    1.8244   -6.8831   16.1425 C   0  0  0  0  0  0  0  0  0  0  0  0
    2.5774   -8.0738   16.4448 N   0  0  0  0  0  0  0  0  0  0  0  0
    1.8488   -8.8598   17.3899 C   0  0  0  0  0  0  0  0  0  0  0  0
    3.9111   -7.7006   16.8644 C   0  0  0  0  0  0  0  0  0  0  0  0
    3.9248   -6.8112   18.0609 C   0  0  0  0  0  0  0  0  0  0  0  0
    1.9967   -3.7696   18.9568 C   0  0  0  0  0  0  0  0  0  0  0  0
    2.1772   -2.5317   19.5243 C   0  0  0  0  0  0  0  0  0  0  0  0
    3.4408   -1.9749   19.6987 C   0  0  0  0  0  0  0  0  0  0  0  0
    3.4653   -0.7229   20.2929 O   0  0  0  0  0  0  0  0  0  0  0  0
    3.4742   -0.6548   21.7042 C   0  0  0  0  0  0  0  0  0  0  0  0
    2.3092   -1.2593   22.2144 F   0  0  0  0  0  0  0  0  0  0  0  0
    4.5335   -1.3529   22.2381 F   0  0  0  0  0  0  0  0  0  0  0  0
    3.5407    0.6695   22.1285 F   0  0  0  0  0  0  0  0  0  0  0  0
    7.2980   -3.3581   17.9978 N   0  0  0  0  0  0  0  0  0  0  0  0
  1  2  1  0
  2  3  1  0
  3  4  2  0
  4  5  1  0
  5  6  1  0
  5  7  2  0
  4  8  1  0
  8  9  2  0
  9 10  1  0
 10 11  2  0
 11 12  1  0
 12 13  2  0
 13 14  1  0
 14 15  1  0
 15 16  1  0
 16 17  2  0
 17 18  1  0
 18 19  1  0
 19 20  1  0
 20 21  1  0
 21 22  1  0
 22 23  1  0
 22 24  1  0
 24 25  1  0
 18 26  2  0
 26 27  1  0
 27 28  2  0
 28 29  1  0
 29 30  1  0
 30 31  1  0
 30 32  1  0
 30 33  1  0
 14 34  2  0
  9  2  1  0
 34 10  1  0
 28 16  1  0
 25 19  1  0
M  CHG  1  22   1
M  END
>  <shape_align_shape_tanimoto>  (3) 
0.61332526591009706

>  <shape_align_color_tanimoto>  (3) 
0.051386873505902653

>  <metric>  (3) 
combo

>  <metric_score>  (3) 
0.332

>  <template_pid>  (3) 
4A4L

>  <template_shape_score>  (3) 
0.613

>  <template_color_score>  (3) 
0.051

>  <template_combo_score>  (3) 
0.332

$$$$
