5O0S_shape_pose
     RDKit          3D

 16 17  0  0  0  0  0  0  0  0999 V2000
   15.8323    8.8259   10.7400 O   0  0  0  0  0  0  0  0  0  0  0  0
   15.7446   10.1891   11.3392 S   0  0  0  0  0  0  0  0  0  0  0  0
   16.8274   11.1174   10.9089 O   0  0  0  0  0  0  0  0  0  0  0  0
   14.2113   10.8460   11.0325 O   0  0  0  0  0  0  0  0  0  0  0  0
   13.4149   10.3615   12.0623 C   0  0  2  0  0  0  0  0  0  0  0  0
   12.5211   11.4635   12.4985 C   0  0  2  0  0  0  0  0  0  0  0  0
   12.7133   12.7318   11.6557 C   0  0  0  0  0  0  0  0  0  0  0  0
   12.4319   12.4319   10.3408 O   0  0  0  0  0  0  0  0  0  0  0  0
   12.7035   11.8127   13.9762 C   0  0  1  0  0  0  0  0  0  0  0  0
   11.8172   12.7965   14.3397 O   0  0  0  0  0  0  0  0  0  0  0  0
   12.4896   10.4930   14.6968 C   0  0  2  0  0  0  0  0  0  0  0  0
   12.4119   10.6992   16.0921 O   0  0  0  0  0  0  0  0  0  0  0  0
   13.7908    9.7409   14.4767 C   0  0  1  0  0  0  0  0  0  0  0  0
   13.6259    8.4763   15.0716 O   0  0  0  0  0  0  0  0  0  0  0  0
   14.2265    9.6806   13.0614 C   0  0  2  0  0  0  0  0  0  0  0  0
   15.5626   10.1364   13.0148 O   0  0  0  0  0  0  0  0  0  0  0  0
  1  2  2  0
  2  3  2  0
  2  4  1  0
  5  4  1  6
  5  6  1  0
  6  7  1  6
  7  8  1  0
  6  9  1  0
  9 10  1  1
  9 11  1  0
 11 12  1  1
 11 13  1  0
 13 14  1  6
 13 15  1  0
 15 16  1  1
 16  2  1  0
 15  5  1  0
M  END
>  <shape_align_shape_tanimoto>  (1) 
0.51676724730546264

>  <shape_align_color_tanimoto>  (1) 
0.13144377934699783

>  <metric>  (1) 
shape

>  <metric_score>  (1) 
0.517

>  <template_pid>  (1) 
5O0S

>  <template_shape_score>  (1) 
0.517

>  <template_color_score>  (1) 
0.131

>  <template_combo_score>  (1) 
0.324

$$$$
5O0S_color_pose
     RDKit          3D

 16 17  0  0  0  0  0  0  0  0999 V2000
   15.5951    8.9164   10.1233 O   0  0  0  0  0  0  0  0  0  0  0  0
   16.0420   10.0064   11.0222 S   0  0  0  0  0  0  0  0  0  0  0  0
   17.5260   10.0122   11.1950 O   0  0  0  0  0  0  0  0  0  0  0  0
   15.3151    9.9303   12.5315 O   0  0  0  0  0  0  0  0  0  0  0  0
   14.7146   11.1451   12.7317 C   0  0  2  0  0  0  0  0  0  0  0  0
   13.4401   10.8551   13.5165 C   0  0  2  0  0  0  0  0  0  0  0  0
   13.7611   10.0832   14.7617 C   0  0  0  0  0  0  0  0  0  0  0  0
   12.5783    9.8387   15.4480 O   0  0  0  0  0  0  0  0  0  0  0  0
   12.5931   10.0566   12.5463 C   0  0  1  0  0  0  0  0  0  0  0  0
   11.6045    9.3100   13.1452 O   0  0  0  0  0  0  0  0  0  0  0  0
   12.0260   11.1332   11.6266 C   0  0  2  0  0  0  0  0  0  0  0  0
   11.0164   10.6542   10.8087 O   0  0  0  0  0  0  0  0  0  0  0  0
   13.1511   11.6178   10.7777 C   0  0  1  0  0  0  0  0  0  0  0  0
   12.7061   12.8011   10.1590 O   0  0  0  0  0  0  0  0  0  0  0  0
   14.4546   11.8403   11.4519 C   0  0  2  0  0  0  0  0  0  0  0  0
   15.4557   11.5149   10.5525 O   0  0  0  0  0  0  0  0  0  0  0  0
  1  2  2  0
  2  3  2  0
  2  4  1  0
  5  4  1  6
  5  6  1  0
  6  7  1  1
  7  8  1  0
  6  9  1  0
  9 10  1  1
  9 11  1  0
 11 12  1  6
 11 13  1  0
 13 14  1  1
 13 15  1  0
 15 16  1  6
 16  2  1  0
 15  5  1  0
M  END
>  <shape_align_shape_tanimoto>  (2) 
0.48074691320536472

>  <shape_align_color_tanimoto>  (2) 
0.1679258677395897

>  <metric>  (2) 
color

>  <metric_score>  (2) 
0.168

>  <template_pid>  (2) 
5O0S

>  <template_shape_score>  (2) 
0.481

>  <template_color_score>  (2) 
0.168

>  <template_combo_score>  (2) 
0.324

$$$$
5O0S_combo_pose
     RDKit          3D

 16 17  0  0  0  0  0  0  0  0999 V2000
   17.2983   10.7155   11.4258 O   0  0  0  0  0  0  0  0  0  0  0  0
   15.9789   10.0625   11.2767 S   0  0  0  0  0  0  0  0  0  0  0  0
   15.8648    9.1433   10.1141 O   0  0  0  0  0  0  0  0  0  0  0  0
   14.7050   11.1881   11.2933 O   0  0  0  0  0  0  0  0  0  0  0  0
   13.6896   10.3508   11.7419 C   0  0  2  0  0  0  0  0  0  0  0  0
   12.4432   11.1004   12.0490 C   0  0  2  0  0  0  0  0  0  0  0  0
   12.1799   12.1047   10.9578 C   0  0  0  0  0  0  0  0  0  0  0  0
   13.1807   13.0301   10.7986 O   0  0  0  0  0  0  0  0  0  0  0  0
   12.4209   11.7225   13.4248 C   0  0  1  0  0  0  0  0  0  0  0  0
   11.2294   12.4048   13.5741 O   0  0  0  0  0  0  0  0  0  0  0  0
   12.5673   10.5737   14.4053 C   0  0  2  0  0  0  0  0  0  0  0  0
   12.3091   10.9790   15.7121 O   0  0  0  0  0  0  0  0  0  0  0  0
   14.0198   10.1339   14.2435 C   0  0  1  0  0  0  0  0  0  0  0  0
   14.2073    9.1244   15.1903 O   0  0  0  0  0  0  0  0  0  0  0  0
   14.1896    9.5229   12.8782 C   0  0  2  0  0  0  0  0  0  0  0  0
   15.5019    9.2157   12.6668 O   0  0  0  0  0  0  0  0  0  0  0  0
  1  2  2  0
  2  3  2  0
  2  4  1  0
  5  4  1  1
  5  6  1  0
  6  7  1  6
  7  8  1  0
  6  9  1  0
  9 10  1  1
  9 11  1  0
 11 12  1  1
 11 13  1  0
 13 14  1  1
 13 15  1  0
 15 16  1  6
 16  2  1  0
 15  5  1  0
M  END
>  <shape_align_shape_tanimoto>  (3) 
0.51095722110404973

>  <shape_align_color_tanimoto>  (3) 
0.15450590494211194

>  <metric>  (3) 
combo

>  <metric_score>  (3) 
0.333

>  <template_pid>  (3) 
5O0S

>  <template_shape_score>  (3) 
0.511

>  <template_color_score>  (3) 
0.155

>  <template_combo_score>  (3) 
0.333

$$$$
