4N7J_shape_pose
     RDKit          3D

 14 15  0  0  0  0  0  0  0  0999 V2000
    8.6085    2.0850   91.6770 C   0  0  0  0  0  0  0  0  0  0  0  0
    8.9035    3.3508   91.0336 N   0  0  0  0  0  0  0  0  0  0  0  0
    9.4692    3.4749   89.7180 C   0  0  0  0  0  0  0  0  0  0  0  0
    8.5979    4.5466   91.7890 C   0  0  0  0  0  0  0  0  0  0  0  0
    7.3692    4.8453   91.8909 N   0  0  0  0  0  0  0  0  0  0  0  0
    6.9694    5.9962   92.6100 C   0  0  0  0  0  0  0  0  0  0  0  0
    5.7692    6.3172   92.7285 O   0  0  0  0  0  0  0  0  0  0  0  0
    7.9785    6.8388   93.2347 C   0  0  0  0  0  0  0  0  0  0  0  0
    7.6406    7.9814   93.9530 C   0  0  0  0  0  0  0  0  0  0  0  0
    8.6143    8.7671   94.5379 C   0  0  0  0  0  0  0  0  0  0  0  0
    9.9441    8.3971   94.3973 C   0  0  0  0  0  0  0  0  0  0  0  0
   10.2698    7.2535   93.6773 C   0  0  0  0  0  0  0  0  0  0  0  0
    9.2907    6.4611   93.0877 C   0  0  0  0  0  0  0  0  0  0  0  0
    9.7512    5.2707   92.3474 C   0  0  0  0  0  0  0  0  0  0  0  0
  1  2  1  0
  2  3  1  0
  2  4  1  0
  4  5  2  0
  5  6  1  0
  6  7  2  0
  6  8  1  0
  8  9  2  0
  9 10  1  0
 10 11  2  0
 11 12  1  0
 12 13  2  0
 13 14  1  0
 14  4  1  0
 13  8  1  0
M  END
>  <shape_align_shape_tanimoto>  (1) 
0.73454704187240105

>  <shape_align_color_tanimoto>  (1) 
0.038337451958751635

>  <metric>  (1) 
shape

>  <metric_score>  (1) 
0.735

>  <template_pid>  (1) 
4N7J

>  <template_shape_score>  (1) 
0.735

>  <template_color_score>  (1) 
0.038

>  <template_combo_score>  (1) 
0.386

$$$$
4N7J_color_pose
     RDKit          3D

 14 15  0  0  0  0  0  0  0  0999 V2000
    9.0528    3.4407   89.5222 C   0  0  0  0  0  0  0  0  0  0  0  0
    8.9268    3.3474   90.9765 N   0  0  0  0  0  0  0  0  0  0  0  0
    9.0847    2.0810   91.6635 C   0  0  0  0  0  0  0  0  0  0  0  0
    8.6399    4.5378   91.7425 C   0  0  0  0  0  0  0  0  0  0  0  0
    7.4151    4.8708   91.8285 N   0  0  0  0  0  0  0  0  0  0  0  0
    6.9847    6.0155   92.5478 C   0  0  0  0  0  0  0  0  0  0  0  0
    5.7675    6.2711   92.5828 O   0  0  0  0  0  0  0  0  0  0  0  0
    8.0135    6.8155   93.1994 C   0  0  0  0  0  0  0  0  0  0  0  0
    7.6065    7.9289   93.9004 C   0  0  0  0  0  0  0  0  0  0  0  0
    8.5742    8.7129   94.5345 C   0  0  0  0  0  0  0  0  0  0  0  0
    9.8880    8.3465   94.4360 C   0  0  0  0  0  0  0  0  0  0  0  0
   10.2691    7.2183   93.7223 C   0  0  0  0  0  0  0  0  0  0  0  0
    9.3266    6.4218   93.0826 C   0  0  0  0  0  0  0  0  0  0  0  0
    9.7813    5.2338   92.3370 C   0  0  0  0  0  0  0  0  0  0  0  0
  1  2  1  0
  2  3  1  0
  2  4  1  0
  4  5  2  0
  5  6  1  0
  6  7  2  0
  6  8  1  0
  8  9  2  0
  9 10  1  0
 10 11  2  0
 11 12  1  0
 12 13  2  0
 13 14  1  0
 14  4  1  0
 13  8  1  0
M  END
>  <shape_align_shape_tanimoto>  (2) 
0.72108951867292692

>  <shape_align_color_tanimoto>  (2) 
0.040694460124679505

>  <metric>  (2) 
color

>  <metric_score>  (2) 
0.041

>  <template_pid>  (2) 
4N7J

>  <template_shape_score>  (2) 
0.721

>  <template_color_score>  (2) 
0.041

>  <template_combo_score>  (2) 
0.381

$$$$
4N7J_combo_pose
     RDKit          3D

 14 15  0  0  0  0  0  0  0  0999 V2000
    8.6085    2.0850   91.6770 C   0  0  0  0  0  0  0  0  0  0  0  0
    8.9035    3.3508   91.0336 N   0  0  0  0  0  0  0  0  0  0  0  0
    9.4692    3.4749   89.7180 C   0  0  0  0  0  0  0  0  0  0  0  0
    8.5979    4.5466   91.7890 C   0  0  0  0  0  0  0  0  0  0  0  0
    7.3692    4.8453   91.8909 N   0  0  0  0  0  0  0  0  0  0  0  0
    6.9694    5.9962   92.6100 C   0  0  0  0  0  0  0  0  0  0  0  0
    5.7692    6.3172   92.7285 O   0  0  0  0  0  0  0  0  0  0  0  0
    7.9785    6.8388   93.2347 C   0  0  0  0  0  0  0  0  0  0  0  0
    7.6406    7.9814   93.9530 C   0  0  0  0  0  0  0  0  0  0  0  0
    8.6143    8.7671   94.5379 C   0  0  0  0  0  0  0  0  0  0  0  0
    9.9441    8.3971   94.3973 C   0  0  0  0  0  0  0  0  0  0  0  0
   10.2698    7.2535   93.6773 C   0  0  0  0  0  0  0  0  0  0  0  0
    9.2907    6.4611   93.0877 C   0  0  0  0  0  0  0  0  0  0  0  0
    9.7512    5.2707   92.3474 C   0  0  0  0  0  0  0  0  0  0  0  0
  1  2  1  0
  2  3  1  0
  2  4  1  0
  4  5  2  0
  5  6  1  0
  6  7  2  0
  6  8  1  0
  8  9  2  0
  9 10  1  0
 10 11  2  0
 11 12  1  0
 12 13  2  0
 13 14  1  0
 14  4  1  0
 13  8  1  0
M  END
>  <shape_align_shape_tanimoto>  (3) 
0.73454704187240105

>  <shape_align_color_tanimoto>  (3) 
0.038337451958751635

>  <metric>  (3) 
combo

>  <metric_score>  (3) 
0.386

>  <template_pid>  (3) 
4N7J

>  <template_shape_score>  (3) 
0.735

>  <template_color_score>  (3) 
0.038

>  <template_combo_score>  (3) 
0.386

$$$$
