1UI0_shape_pose
     RDKit          3D

  8  8  0  0  0  0  0  0  0  0999 V2000
    2.9691    3.9926   13.7722 O   0  0  0  0  0  0  0  0  0  0  0  0
    2.3874    4.8645   13.0616 C   0  0  0  0  0  0  0  0  0  0  0  0
    1.6835    5.8624   13.7070 C   0  0  0  0  0  0  0  0  0  0  0  0
    1.0586    6.8008   12.8940 C   0  0  0  0  0  0  0  0  0  0  0  0
    1.1484    6.7216   11.5405 N   0  0  0  0  0  0  0  0  0  0  0  0
    1.8478    5.7287   10.9392 C   0  0  0  0  0  0  0  0  0  0  0  0
    1.9270    5.6613    9.6846 O   0  0  0  0  0  0  0  0  0  0  0  0
    2.4650    4.8027   11.7190 N   0  0  0  0  0  0  0  0  0  0  0  0
  1  2  2  0
  2  3  1  0
  3  4  2  0
  4  5  1  0
  5  6  1  0
  6  7  2  0
  6  8  1  0
  8  2  1  0
M  END
>  <shape_align_shape_tanimoto>  (1) 
0.48881957976093854

>  <shape_align_color_tanimoto>  (1) 
0.021396252431438077

>  <metric>  (1) 
shape

>  <metric_score>  (1) 
0.489

>  <template_pid>  (1) 
1UI0

>  <template_shape_score>  (1) 
0.489

>  <template_color_score>  (1) 
0.021

>  <template_combo_score>  (1) 
0.255

$$$$
1UI0_color_pose
     RDKit          3D

  8  8  0  0  0  0  0  0  0  0999 V2000
    1.7585    5.8538    9.8591 O   0  0  0  0  0  0  0  0  0  0  0  0
    1.7621    5.8244   11.1037 C   0  0  0  0  0  0  0  0  0  0  0  0
    1.1030    6.7743   11.8592 C   0  0  0  0  0  0  0  0  0  0  0  0
    1.1235    6.7176   13.2284 C   0  0  0  0  0  0  0  0  0  0  0  0
    1.7995    5.7169   13.8063 N   0  0  0  0  0  0  0  0  0  0  0  0
    2.4436    4.7879   13.1036 C   0  0  0  0  0  0  0  0  0  0  0  0
    3.0706    3.8588   13.6829 O   0  0  0  0  0  0  0  0  0  0  0  0
    2.4117    4.8607   11.7653 N   0  0  0  0  0  0  0  0  0  0  0  0
  1  2  2  0
  2  3  1  0
  3  4  2  0
  4  5  1  0
  5  6  1  0
  6  7  2  0
  6  8  1  0
  8  2  1  0
M  END
>  <shape_align_shape_tanimoto>  (2) 
0.48567916154572294

>  <shape_align_color_tanimoto>  (2) 
0.023238646487887305

>  <metric>  (2) 
color

>  <metric_score>  (2) 
0.023

>  <template_pid>  (2) 
1UI0

>  <template_shape_score>  (2) 
0.486

>  <template_color_score>  (2) 
0.023

>  <template_combo_score>  (2) 
0.254

$$$$
1UI0_combo_pose
     RDKit          3D

  8  8  0  0  0  0  0  0  0  0999 V2000
    1.7622    5.8330    9.8107 O   0  0  0  0  0  0  0  0  0  0  0  0
    1.7747    5.8068   11.0810 C   0  0  0  0  0  0  0  0  0  0  0  0
    1.1182    6.7706   11.8381 C   0  0  0  0  0  0  0  0  0  0  0  0
    1.1421    6.7269   13.2122 C   0  0  0  0  0  0  0  0  0  0  0  0
    1.8135    5.7324   13.8617 N   0  0  0  0  0  0  0  0  0  0  0  0
    2.4406    4.8119   13.1221 C   0  0  0  0  0  0  0  0  0  0  0  0
    3.0586    3.8965   13.7202 O   0  0  0  0  0  0  0  0  0  0  0  0
    2.4303    4.8353   11.7656 N   0  0  0  0  0  0  0  0  0  0  0  0
  1  2  2  0
  2  3  1  0
  3  4  2  0
  4  5  1  0
  5  6  1  0
  6  7  2  0
  6  8  1  0
  8  2  1  0
M  END
>  <shape_align_shape_tanimoto>  (3) 
0.48761269847418548

>  <shape_align_color_tanimoto>  (3) 
0.022903545528171032

>  <metric>  (3) 
combo

>  <metric_score>  (3) 
0.255

>  <template_pid>  (3) 
1UI0

>  <template_shape_score>  (3) 
0.488

>  <template_color_score>  (3) 
0.023

>  <template_combo_score>  (3) 
0.255

$$$$
