6BQD_shape_pose
     RDKit          3D

 25 27  0  0  0  0  0  0  0  0999 V2000
   18.0593    8.2971   16.9465 C   0  0  0  0  0  0  0  0  0  0  0  0
   17.1907    9.0937   16.0257 C   0  0  0  0  0  0  0  0  0  0  0  0
   15.9716    9.3681   16.4494 C   0  0  0  0  0  0  0  0  0  0  0  0
   14.9642   10.1520   15.6683 C   0  0  0  0  0  0  0  0  0  0  0  0
   14.6447   11.3335   16.4835 N   0  0  0  0  0  0  0  0  0  0  0  0
   13.6397   11.1831   17.3566 C   0  0  0  0  0  0  0  0  0  0  0  0
   13.3337   12.2577   18.1617 C   0  0  0  0  0  0  0  0  0  0  0  0
   12.2674   12.1296   19.1631 C   0  0  0  0  0  0  0  0  0  0  0  0
   10.9389   12.0235   18.8290 C   0  0  0  0  0  0  0  0  0  0  0  0
   10.0266   11.8751   19.8453 C   0  0  0  0  0  0  0  0  0  0  0  0
   10.4549   11.8365   21.1720 C   0  0  0  0  0  0  0  0  0  0  0  0
   11.7783   11.9420   21.5055 C   0  0  0  0  0  0  0  0  0  0  0  0
   12.2833   11.8852   22.8748 C   0  0  0  0  0  0  0  0  0  0  0  0
   11.8862   10.9697   23.6333 O   0  0  0  0  0  0  0  0  0  0  0  0
   13.2127   12.8235   23.3972 N   0  0  0  0  0  0  0  0  0  0  0  0
   13.6218   12.6200   24.7817 C   0  0  0  0  0  0  0  0  0  0  0  0
   13.7552   13.9237   22.6714 C   0  0  0  0  0  0  0  0  0  0  0  0
   12.6821   12.0893   20.4878 C   0  0  0  0  0  0  0  0  0  0  0  0
   14.0277   13.4407   18.0764 C   0  0  0  0  0  0  0  0  0  0  0  0
   13.9130   14.6394   18.7541 C   0  0  0  0  0  0  0  0  0  0  0  0
   14.8964   15.4592   18.2167 C   0  0  0  0  0  0  0  0  0  0  0  0
   15.5759   14.7751   17.2506 N   0  0  0  0  0  0  0  0  0  0  0  0
   15.0523   13.5290   17.1522 C   0  0  0  0  0  0  0  0  0  0  0  0
   15.3588   12.4679   16.3549 C   0  0  0  0  0  0  0  0  0  0  0  0
   16.3067   12.5553   15.5032 O   0  0  0  0  0  0  0  0  0  0  0  0
  1  2  1  0
  2  3  2  0
  3  4  1  0
  4  5  1  0
  5  6  1  0
  6  7  2  0
  7  8  1  0
  8  9  2  0
  9 10  1  0
 10 11  2  0
 11 12  1  0
 12 13  1  0
 13 14  2  0
 13 15  1  0
 15 16  1  0
 15 17  1  0
 12 18  2  0
  7 19  1  0
 19 20  1  0
 20 21  2  0
 21 22  1  0
 22 23  1  0
 23 24  1  0
 24 25  2  0
 24  5  1  0
 18  8  1  0
 23 19  2  0
M  END
>  <shape_align_shape_tanimoto>  (1) 
0.60748019524890329

>  <shape_align_color_tanimoto>  (1) 
0.048966147010949507

>  <metric>  (1) 
shape

>  <metric_score>  (1) 
0.607

>  <template_pid>  (1) 
6BQD

>  <template_shape_score>  (1) 
0.607

>  <template_color_score>  (1) 
0.049

>  <template_combo_score>  (1) 
0.328

$$$$
6BQD_color_pose
     RDKit          3D

 25 27  0  0  0  0  0  0  0  0999 V2000
    7.8882    8.5489   16.2079 C   0  0  0  0  0  0  0  0  0  0  0  0
    8.1495    9.9912   16.4900 C   0  0  0  0  0  0  0  0  0  0  0  0
    8.5703   10.4187   17.6681 C   0  0  0  0  0  0  0  0  0  0  0  0
    8.8119   11.8838   17.8802 C   0  0  0  0  0  0  0  0  0  0  0  0
   10.2054   12.0234   18.2363 N   0  0  0  0  0  0  0  0  0  0  0  0
   10.6489   11.9792   19.5121 C   0  0  0  0  0  0  0  0  0  0  0  0
   11.9985   12.1162   19.8183 C   0  0  0  0  0  0  0  0  0  0  0  0
   12.4537   12.0700   21.2189 C   0  0  0  0  0  0  0  0  0  0  0  0
   11.9883   11.0557   22.0415 C   0  0  0  0  0  0  0  0  0  0  0  0
   12.3956   10.9851   23.3704 C   0  0  0  0  0  0  0  0  0  0  0  0
   13.2779   11.9448   23.8726 C   0  0  0  0  0  0  0  0  0  0  0  0
   13.7181   12.9381   23.0231 C   0  0  0  0  0  0  0  0  0  0  0  0
   14.6544   13.9797   23.5009 C   0  0  0  0  0  0  0  0  0  0  0  0
   15.8249   13.6635   23.8977 O   0  0  0  0  0  0  0  0  0  0  0  0
   14.2091   15.3333   23.5023 N   0  0  0  0  0  0  0  0  0  0  0  0
   12.8921   15.6919   23.0580 C   0  0  0  0  0  0  0  0  0  0  0  0
   15.1319   16.3631   23.9715 C   0  0  0  0  0  0  0  0  0  0  0  0
   13.3300   13.0313   21.7008 C   0  0  0  0  0  0  0  0  0  0  0  0
   12.9215   12.3021   18.8097 C   0  0  0  0  0  0  0  0  0  0  0  0
   14.2751   12.4654   18.7378 C   0  0  0  0  0  0  0  0  0  0  0  0
   14.6423   12.6080   17.4153 C   0  0  0  0  0  0  0  0  0  0  0  0
   13.5135   12.5310   16.6887 N   0  0  0  0  0  0  0  0  0  0  0  0
   12.4554   12.3448   17.5214 C   0  0  0  0  0  0  0  0  0  0  0  0
   11.0947   12.2054   17.2313 C   0  0  0  0  0  0  0  0  0  0  0  0
   10.7293   12.2544   16.0196 O   0  0  0  0  0  0  0  0  0  0  0  0
  1  2  1  0
  2  3  2  0
  3  4  1  0
  4  5  1  0
  5  6  1  0
  6  7  2  0
  7  8  1  0
  8  9  2  0
  9 10  1  0
 10 11  2  0
 11 12  1  0
 12 13  1  0
 13 14  2  0
 13 15  1  0
 15 16  1  0
 15 17  1  0
 12 18  2  0
  7 19  1  0
 19 20  1  0
 20 21  2  0
 21 22  1  0
 22 23  1  0
 23 24  1  0
 24 25  2  0
 24  5  1  0
 18  8  1  0
 23 19  2  0
M  END
>  <shape_align_shape_tanimoto>  (2) 
0.53471119340270146

>  <shape_align_color_tanimoto>  (2) 
0.15955342659565583

>  <metric>  (2) 
color

>  <metric_score>  (2) 
0.160

>  <template_pid>  (2) 
6BQD

>  <template_shape_score>  (2) 
0.535

>  <template_color_score>  (2) 
0.160

>  <template_combo_score>  (2) 
0.347

$$$$
6BQD_combo_pose
     RDKit          3D

 25 27  0  0  0  0  0  0  0  0999 V2000
   15.9331    9.5614   16.8420 C   0  0  0  0  0  0  0  0  0  0  0  0
   15.0511   10.7393   17.0682 C   0  0  0  0  0  0  0  0  0  0  0  0
   15.2541   11.8223   16.3327 C   0  0  0  0  0  0  0  0  0  0  0  0
   14.3910   13.0441   16.5192 C   0  0  0  0  0  0  0  0  0  0  0  0
   13.3996   12.8164   17.5569 N   0  0  0  0  0  0  0  0  0  0  0  0
   13.6918   13.1192   18.8478 C   0  0  0  0  0  0  0  0  0  0  0  0
   12.7368   12.8997   19.8457 C   0  0  0  0  0  0  0  0  0  0  0  0
   13.1016   13.2376   21.1952 C   0  0  0  0  0  0  0  0  0  0  0  0
   13.7337   14.4687   21.3914 C   0  0  0  0  0  0  0  0  0  0  0  0
   14.1241   14.8857   22.6445 C   0  0  0  0  0  0  0  0  0  0  0  0
   13.9079   14.1074   23.7556 C   0  0  0  0  0  0  0  0  0  0  0  0
   13.2850   12.8906   23.5736 C   0  0  0  0  0  0  0  0  0  0  0  0
   12.9986   11.9716   24.6758 C   0  0  0  0  0  0  0  0  0  0  0  0
   12.2793   12.2483   25.6464 O   0  0  0  0  0  0  0  0  0  0  0  0
   13.5928   10.6717   24.6190 N   0  0  0  0  0  0  0  0  0  0  0  0
   13.3573    9.6985   25.6767 C   0  0  0  0  0  0  0  0  0  0  0  0
   14.4508   10.2569   23.5202 C   0  0  0  0  0  0  0  0  0  0  0  0
   12.8910   12.4719   22.3017 C   0  0  0  0  0  0  0  0  0  0  0  0
   11.5218   12.3767   19.4630 C   0  0  0  0  0  0  0  0  0  0  0  0
   10.4108   12.0595   20.2003 C   0  0  0  0  0  0  0  0  0  0  0  0
    9.4296   11.5580   19.3543 C   0  0  0  0  0  0  0  0  0  0  0  0
    9.9543   11.5771   18.1214 N   0  0  0  0  0  0  0  0  0  0  0  0
   11.2161   12.0648   18.1457 C   0  0  0  0  0  0  0  0  0  0  0  0
   12.1968   12.3039   17.2142 C   0  0  0  0  0  0  0  0  0  0  0  0
   11.9278   12.0234   16.0140 O   0  0  0  0  0  0  0  0  0  0  0  0
  1  2  1  0
  2  3  2  0
  3  4  1  0
  4  5  1  0
  5  6  1  0
  6  7  2  0
  7  8  1  0
  8  9  2  0
  9 10  1  0
 10 11  2  0
 11 12  1  0
 12 13  1  0
 13 14  2  0
 13 15  1  0
 15 16  1  0
 15 17  1  0
 12 18  2  0
  7 19  1  0
 19 20  1  0
 20 21  2  0
 21 22  1  0
 22 23  1  0
 23 24  1  0
 24 25  2  0
 24  5  1  0
 18  8  1  0
 23 19  2  0
M  END
>  <shape_align_shape_tanimoto>  (3) 
0.59553598253492557

>  <shape_align_color_tanimoto>  (3) 
0.12577515701251099

>  <metric>  (3) 
combo

>  <metric_score>  (3) 
0.361

>  <template_pid>  (3) 
6BQD

>  <template_shape_score>  (3) 
0.596

>  <template_color_score>  (3) 
0.126

>  <template_combo_score>  (3) 
0.361

$$$$
