1THR_shape_pose
     RDKit          3D

111112  0  0  0  0  0  0  0  0999 V2000
  -11.2735  -38.0336   25.2625 C   0  0  0  0  0  0  0  0  0  0  0  0
  -12.1806  -36.8946   24.8210 C   0  0  0  0  0  0  0  0  0  0  0  0
  -13.3699  -36.7991   25.7470 C   0  0  2  0  0  0  0  0  0  0  0  0
  -14.1607  -38.1160   25.7117 C   0  0  0  0  0  0  0  0  0  0  0  0
  -14.2529  -35.6286   25.5039 C   0  0  2  0  0  0  0  0  0  0  0  0
  -14.8105  -35.5611   24.2041 N   0  0  0  0  0  0  0  0  0  0  0  0
  -15.8694  -34.8021   23.6707 C   0  0  0  0  0  0  0  0  0  0  0  0
  -16.4754  -33.9718   24.3854 O   0  0  0  0  0  0  0  0  0  0  0  0
  -16.2196  -35.0443   22.2339 C   0  0  2  0  0  0  0  0  0  0  0  0
  -15.1686  -35.7437   21.4392 C   0  0  0  0  0  0  0  0  0  0  0  0
  -13.8739  -35.0287   21.3866 C   0  0  0  0  0  0  0  0  0  0  0  0
  -13.6808  -33.9149   21.9594 O   0  0  0  0  0  0  0  0  0  0  0  0
  -12.8384  -35.6565   20.6554 O   0  0  0  0  0  0  0  0  0  0  0  0
  -16.9326  -34.0326   21.5383 N   0  0  0  0  0  0  0  0  0  0  0  0
  -18.2614  -33.5750   21.7134 C   0  0  0  0  0  0  0  0  0  0  0  0
  -18.9401  -34.0758   22.6467 O   0  0  0  0  0  0  0  0  0  0  0  0
  -18.7601  -32.5362   20.7766 C   0  0  2  0  0  0  0  0  0  0  0  0
  -17.7550  -31.6790   20.1142 C   0  0  0  0  0  0  0  0  0  0  0  0
  -16.8795  -30.8834   20.9870 C   0  0  0  0  0  0  0  0  0  0  0  0
  -16.8944  -30.8532   22.2359 O   0  0  0  0  0  0  0  0  0  0  0  0
  -15.9201  -30.0664   20.3428 O   0  0  0  0  0  0  0  0  0  0  0  0
  -19.9505  -31.8356   21.1319 N   0  0  0  0  0  0  0  0  0  0  0  0
  -21.2284  -32.3748   21.3594 C   0  0  0  0  0  0  0  0  0  0  0  0
  -21.4240  -33.6389   21.2960 O   0  0  0  0  0  0  0  0  0  0  0  0
  -22.4539  -31.4935   21.6873 C   0  0  2  0  0  0  0  0  0  0  0  0
  -22.0673  -30.5223   22.7055 C   0  0  0  0  0  0  0  0  0  0  0  0
  -23.0683  -29.5274   23.1952 C   0  0  0  0  0  0  0  0  0  0  0  0
  -23.6063  -28.6189   22.1035 C   0  0  0  0  0  0  0  0  0  0  0  0
  -24.1659  -30.0790   24.0740 C   0  0  0  0  0  0  0  0  0  0  0  0
  -23.4634  -32.4649   22.0982 N   0  0  0  0  0  0  0  0  0  0  0  0
  -24.0611  -33.4347   21.2693 C   0  0  0  0  0  0  0  0  0  0  0  0
  -23.7451  -33.5182   20.0565 O   0  0  0  0  0  0  0  0  0  0  0  0
  -25.0486  -34.3597   21.8358 C   0  0  2  0  0  0  0  0  0  0  0  0
  -24.7222  -34.7796   23.2753 C   0  0  0  0  0  0  0  0  0  0  0  0
  -23.5227  -35.4359   23.3941 O   0  0  0  0  0  0  0  0  0  0  0  0
  -25.1350  -35.5518   20.9739 N   0  0  0  0  0  0  0  0  0  0  0  0
  -26.3402  -36.2686   20.7383 C   0  0  0  0  0  0  0  0  0  0  0  0
  -27.3817  -35.8233   21.3057 O   0  0  0  0  0  0  0  0  0  0  0  0
  -26.4170  -37.4721   19.8993 C   0  0  2  0  0  0  0  0  0  0  0  0
  -26.7171  -38.7083   20.8219 C   0  0  0  0  0  0  0  0  0  0  0  0
  -25.6637  -38.8997   21.8270 C   0  0  0  0  0  0  0  0  0  0  0  0
  -24.5427  -39.7157   21.6397 C   0  0  0  0  0  0  0  0  0  0  0  0
  -23.5845  -39.8445   22.6293 C   0  0  0  0  0  0  0  0  0  0  0  0
  -23.6832  -39.1739   23.8574 C   0  0  0  0  0  0  0  0  0  0  0  0
  -24.8013  -38.3611   24.0475 C   0  0  0  0  0  0  0  0  0  0  0  0
  -25.7307  -38.2535   23.0495 C   0  0  0  0  0  0  0  0  0  0  0  0
  -25.2018  -37.7901   19.1478 N   0  0  0  0  0  0  0  0  0  0  0  0
  -25.2440  -38.7614   18.0999 C   0  0  0  0  0  0  0  0  0  0  0  0
  -26.3824  -39.3199   17.8849 O   0  0  0  0  0  0  0  0  0  0  0  0
  -24.1142  -39.1727   17.2659 C   0  0  2  0  0  0  0  0  0  0  0  0
  -23.5061  -40.4843   17.8823 C   0  0  0  0  0  0  0  0  0  0  0  0
  -24.5113  -41.5916   17.9362 C   0  0  0  0  0  0  0  0  0  0  0  0
  -23.8279  -42.7736   18.5319 C   0  0  0  0  0  0  0  0  0  0  0  0
  -22.5959  -42.6940   18.8970 O   0  0  0  0  0  0  0  0  0  0  0  0
  -24.4987  -44.0069   18.7167 O   0  0  0  0  0  0  0  0  0  0  0  0
  -22.9623  -38.2730   17.3060 N   0  0  0  0  0  0  0  0  0  0  0  0
  -22.1708  -38.1410   16.1644 C   0  0  0  0  0  0  0  0  0  0  0  0
  -22.5029  -38.8539   15.1427 O   0  0  0  0  0  0  0  0  0  0  0  0
  -20.9808  -37.2799   15.9709 C   0  0  2  0  0  0  0  0  0  0  0  0
  -21.5367  -35.8753   15.6402 C   0  0  0  0  0  0  0  0  0  0  0  0
  -22.3433  -35.2306   16.7058 C   0  0  0  0  0  0  0  0  0  0  0  0
  -21.5012  -34.9666   17.8887 C   0  0  0  0  0  0  0  0  0  0  0  0
  -20.9584  -35.7869   18.6509 O   0  0  0  0  0  0  0  0  0  0  0  0
  -21.2672  -33.5981   18.2172 O   0  0  0  0  0  0  0  0  0  0  0  0
  -20.1976  -37.6561   14.7691 N   0  0  0  0  0  0  0  0  0  0  0  0
  -18.7807  -37.7116   14.9715 C   0  0  0  0  0  0  0  0  0  0  0  0
  -18.2992  -37.4563   16.1303 O   0  0  0  0  0  0  0  0  0  0  0  0
  -17.8480  -38.0611   13.8468 C   0  0  2  0  0  0  0  0  0  0  0  0
  -18.2271  -39.3564   13.1617 C   0  0  0  0  0  0  0  0  0  0  0  0
  -17.3337  -39.6023   12.0282 C   0  0  0  0  0  0  0  0  0  0  0  0
  -17.6723  -38.9122   10.8355 C   0  0  0  0  0  0  0  0  0  0  0  0
  -16.9454  -39.0720    9.6778 C   0  0  0  0  0  0  0  0  0  0  0  0
  -15.8506  -39.9058    9.5998 C   0  0  0  0  0  0  0  0  0  0  0  0
  -15.5061  -40.5896   10.7593 C   0  0  0  0  0  0  0  0  0  0  0  0
  -16.2573  -40.4204   11.9446 C   0  0  0  0  0  0  0  0  0  0  0  0
  -16.5361  -37.9897   14.4238 N   0  0  0  0  0  0  0  0  0  0  0  0
  -15.7943  -39.0230   15.0401 C   0  0  0  0  0  0  0  0  0  0  0  0
  -16.1745  -40.1976   15.1955 O   0  0  0  0  0  0  0  0  0  0  0  0
  -14.4222  -38.6862   15.5540 C   0  0  2  0  0  0  0  0  0  0  0  0
  -14.0311  -39.4085   16.7966 C   0  0  0  0  0  0  0  0  0  0  0  0
  -14.8799  -39.1942   17.9743 C   0  0  0  0  0  0  0  0  0  0  0  0
  -15.8931  -38.4049   17.9634 O   0  0  0  0  0  0  0  0  0  0  0  0
  -14.5630  -39.8833   19.1468 O   0  0  0  0  0  0  0  0  0  0  0  0
  -14.1459  -37.2685   15.5252 N   0  0  0  0  0  0  0  0  0  0  0  0
  -13.2342  -36.6473   14.6175 C   0  0  0  0  0  0  0  0  0  0  0  0
  -12.5884  -37.2888   13.7492 O   0  0  0  0  0  0  0  0  0  0  0  0
  -13.0593  -35.1693   14.7284 C   0  0  1  0  0  0  0  0  0  0  0  0
  -12.1045  -34.7367   13.7248 N   0  0  0  0  0  0  0  0  0  0  0  0
  -14.3599  -34.4169   14.5561 C   0  0  0  0  0  0  0  0  0  0  0  0
  -14.1520  -33.0529   14.6951 O   0  0  0  0  0  0  0  0  0  0  0  0
  -13.8631  -34.3720   26.1423 C   0  0  0  0  0  0  0  0  0  0  0  0
  -14.5985  -33.3545   26.0206 O   0  0  0  0  0  0  0  0  0  0  0  0
  -12.6733  -34.1872   26.9292 N   0  0  0  0  0  0  0  0  0  0  0  0
  -12.3462  -32.9555   27.6023 C   0  0  1  0  0  0  0  0  0  0  0  0
  -11.4297  -33.1965   28.7615 C   0  0  0  0  0  0  0  0  0  0  0  0
  -12.0765  -34.1391   29.7508 C   0  0  0  0  0  0  0  0  0  0  0  0
  -11.2050  -34.3772   30.9447 C   0  0  0  0  0  0  0  0  0  0  0  0
  -10.1148  -33.7757   31.0619 O   0  0  0  0  0  0  0  0  0  0  0  0
  -11.6347  -35.2829   31.9034 O   0  0  0  0  0  0  0  0  0  0  0  0
  -12.0344  -31.7795   26.7767 C   0  0  0  0  0  0  0  0  0  0  0  0
  -11.6583  -30.7257   27.4134 O   0  0  0  0  0  0  0  0  0  0  0  0
  -12.1071  -31.6486   25.3745 N   0  0  0  0  0  0  0  0  0  0  0  0
  -11.7827  -30.3421   24.8165 C   0  0  1  0  0  0  0  0  0  0  0  0
  -11.2219  -30.3122   23.4535 C   0  0  0  0  0  0  0  0  0  0  0  0
  -10.7712  -28.9684   22.9916 C   0  0  0  0  0  0  0  0  0  0  0  0
  -11.5822  -27.7845   22.9743 C   0  0  0  0  0  0  0  0  0  0  0  0
  -11.3289  -26.8101   21.9032 N   0  0  0  0  0  0  0  0  0  0  0  0
  -12.5076  -27.4015   23.7449 O   0  0  0  0  0  0  0  0  0  0  0  0
  -13.2644  -29.7946   24.7102 C   0  0  0  0  0  0  0  0  0  0  0  0
  -13.8163  -29.8445   23.5740 O   0  0  0  0  0  0  0  0  0  0  0  0
  -13.8594  -29.3009   25.8534 O   0  0  0  0  0  0  0  0  0  0  0  0
  1  2  1  0
  2  3  1  0
  3  4  1  6
  3  5  1  0
  5  6  1  6
  6  7  1  0
  7  8  2  0
  7  9  1  0
  9 10  1  6
 10 11  1  0
 11 12  2  0
 11 13  1  0
  9 14  1  0
 14 15  1  0
 15 16  2  0
 15 17  1  0
 17 18  1  1
 18 19  1  0
 19 20  2  0
 19 21  1  0
 17 22  1  0
 22 23  1  0
 23 24  2  0
 23 25  1  0
 25 26  1  1
 26 27  1  0
 27 28  1  0
 27 29  1  0
 25 30  1  0
 30 31  1  0
 31 32  2  0
 31 33  1  0
 33 34  1  1
 34 35  1  0
 33 36  1  0
 36 37  1  0
 37 38  2  0
 37 39  1  0
 39 40  1  1
 40 41  1  0
 41 42  2  0
 42 43  1  0
 43 44  2  0
 44 45  1  0
 45 46  2  0
 39 47  1  0
 47 48  1  0
 48 49  2  0
 48 50  1  0
 50 51  1  1
 51 52  1  0
 52 53  1  0
 53 54  2  0
 53 55  1  0
 50 56  1  0
 56 57  1  0
 57 58  2  0
 57 59  1  0
 59 60  1  6
 60 61  1  0
 61 62  1  0
 62 63  2  0
 62 64  1  0
 59 65  1  0
 65 66  1  0
 66 67  2  0
 66 68  1  0
 68 69  1  1
 69 70  1  0
 70 71  2  0
 71 72  1  0
 72 73  2  0
 73 74  1  0
 74 75  2  0
 68 76  1  0
 76 77  1  0
 77 78  2  0
 77 79  1  0
 79 80  1  1
 80 81  1  0
 81 82  2  0
 81 83  1  0
 79 84  1  0
 84 85  1  0
 85 86  2  0
 85 87  1  0
 87 88  1  6
 87 89  1  0
 89 90  1  0
  5 91  1  0
 91 92  2  0
 91 93  1  0
 93 94  1  0
 94 95  1  6
 95 96  1  0
 96 97  1  0
 97 98  2  0
 97 99  1  0
 94100  1  0
100101  2  0
100102  1  0
102103  1  0
103104  1  6
104105  1  0
105106  1  0
106107  1  0
106108  2  0
103109  1  0
109110  2  0
109111  1  0
 46 41  1  0
 75 70  1  0
M  CHG  8  13  -1  21  -1  55  -1  64  -1  83  -1  88   1  99  -1 111  -1
M  END
>  <shape_align_shape_tanimoto>  (1) 
0.28958070722591966

>  <shape_align_color_tanimoto>  (1) 
0.0017462579986047516

>  <metric>  (1) 
shape

>  <metric_score>  (1) 
0.290

>  <template_pid>  (1) 
1THR

>  <template_shape_score>  (1) 
0.290

>  <template_color_score>  (1) 
0.002

>  <template_combo_score>  (1) 
0.146

$$$$
1THR_color_pose
     RDKit          3D

111112  0  0  0  0  0  0  0  0999 V2000
  -24.7273  -33.9624   17.0308 C   0  0  0  0  0  0  0  0  0  0  0  0
  -24.3492  -32.7457   17.8518 C   0  0  0  0  0  0  0  0  0  0  0  0
  -24.5561  -32.9940   19.2964 C   0  0  2  0  0  0  0  0  0  0  0  0
  -26.0234  -33.2916   19.5274 C   0  0  0  0  0  0  0  0  0  0  0  0
  -24.2703  -31.6976   20.0471 C   0  0  2  0  0  0  0  0  0  0  0  0
  -22.9232  -31.2483   19.8737 N   0  0  0  0  0  0  0  0  0  0  0  0
  -21.8194  -32.0394   19.5499 C   0  0  0  0  0  0  0  0  0  0  0  0
  -21.8909  -33.2855   19.4057 O   0  0  0  0  0  0  0  0  0  0  0  0
  -20.4356  -31.4911   19.3490 C   0  0  2  0  0  0  0  0  0  0  0  0
  -20.1541  -31.0694   17.9624 C   0  0  0  0  0  0  0  0  0  0  0  0
  -20.9371  -30.0409   17.3386 C   0  0  0  0  0  0  0  0  0  0  0  0
  -21.8357  -29.3368   17.7587 O   0  0  0  0  0  0  0  0  0  0  0  0
  -20.6026  -29.7978   15.9648 O   0  0  0  0  0  0  0  0  0  0  0  0
  -19.5736  -32.6783   19.5368 N   0  0  0  0  0  0  0  0  0  0  0  0
  -18.4686  -32.5530   20.4250 C   0  0  0  0  0  0  0  0  0  0  0  0
  -18.2400  -31.4493   20.9940 O   0  0  0  0  0  0  0  0  0  0  0  0
  -17.5984  -33.6834   20.6966 C   0  0  2  0  0  0  0  0  0  0  0  0
  -18.4422  -34.8036   21.3501 C   0  0  0  0  0  0  0  0  0  0  0  0
  -19.0275  -34.4293   22.6152 C   0  0  0  0  0  0  0  0  0  0  0  0
  -18.8920  -33.3110   23.1857 O   0  0  0  0  0  0  0  0  0  0  0  0
  -19.8166  -35.4046   23.2517 O   0  0  0  0  0  0  0  0  0  0  0  0
  -16.5045  -33.3400   21.5606 N   0  0  0  0  0  0  0  0  0  0  0  0
  -15.8246  -34.1965   22.4353 C   0  0  0  0  0  0  0  0  0  0  0  0
  -16.1819  -35.4306   22.5466 O   0  0  0  0  0  0  0  0  0  0  0  0
  -14.7010  -33.8415   23.2924 C   0  0  2  0  0  0  0  0  0  0  0  0
  -13.3394  -34.1961   22.6804 C   0  0  0  0  0  0  0  0  0  0  0  0
  -12.9821  -33.5889   21.3968 C   0  0  0  0  0  0  0  0  0  0  0  0
  -11.5544  -34.0349   20.9771 C   0  0  0  0  0  0  0  0  0  0  0  0
  -13.8550  -34.0540   20.2725 C   0  0  0  0  0  0  0  0  0  0  0  0
  -14.7210  -34.6591   24.4910 N   0  0  0  0  0  0  0  0  0  0  0  0
  -13.9107  -34.4176   25.6313 C   0  0  0  0  0  0  0  0  0  0  0  0
  -13.0874  -33.5025   25.6908 O   0  0  0  0  0  0  0  0  0  0  0  0
  -14.1232  -35.3514   26.7592 C   0  0  2  0  0  0  0  0  0  0  0  0
  -13.2263  -36.5835   26.3915 C   0  0  0  0  0  0  0  0  0  0  0  0
  -13.5522  -37.0555   25.1614 O   0  0  0  0  0  0  0  0  0  0  0  0
  -15.4791  -35.7679   26.7742 N   0  0  0  0  0  0  0  0  0  0  0  0
  -16.0717  -36.8424   27.4335 C   0  0  0  0  0  0  0  0  0  0  0  0
  -15.3926  -37.6236   28.0889 O   0  0  0  0  0  0  0  0  0  0  0  0
  -17.5694  -36.9645   27.2693 C   0  0  2  0  0  0  0  0  0  0  0  0
  -18.1043  -36.1351   28.4133 C   0  0  0  0  0  0  0  0  0  0  0  0
  -19.5413  -36.0395   28.5429 C   0  0  0  0  0  0  0  0  0  0  0  0
  -20.3120  -35.0411   27.9390 C   0  0  0  0  0  0  0  0  0  0  0  0
  -21.6654  -35.0163   28.1684 C   0  0  0  0  0  0  0  0  0  0  0  0
  -22.2397  -35.9526   28.9702 C   0  0  0  0  0  0  0  0  0  0  0  0
  -21.5139  -36.9672   29.5918 C   0  0  0  0  0  0  0  0  0  0  0  0
  -20.1672  -36.9782   29.3523 C   0  0  0  0  0  0  0  0  0  0  0  0
  -17.9089  -38.3474   27.4204 N   0  0  0  0  0  0  0  0  0  0  0  0
  -18.3223  -39.0139   26.2573 C   0  0  0  0  0  0  0  0  0  0  0  0
  -18.3359  -38.3077   25.1887 O   0  0  0  0  0  0  0  0  0  0  0  0
  -18.7489  -40.3986   26.0878 C   0  0  2  0  0  0  0  0  0  0  0  0
  -17.6713  -41.3899   26.2529 C   0  0  0  0  0  0  0  0  0  0  0  0
  -16.9755  -41.4328   27.5613 C   0  0  0  0  0  0  0  0  0  0  0  0
  -17.8929  -41.7462   28.6938 C   0  0  0  0  0  0  0  0  0  0  0  0
  -19.1056  -42.0190   28.4257 O   0  0  0  0  0  0  0  0  0  0  0  0
  -17.3662  -41.7225   29.9470 O   0  0  0  0  0  0  0  0  0  0  0  0
  -19.1704  -40.5344   24.6585 N   0  0  0  0  0  0  0  0  0  0  0  0
  -20.5483  -40.3015   24.3957 C   0  0  0  0  0  0  0  0  0  0  0  0
  -21.2039  -39.9858   25.4369 O   0  0  0  0  0  0  0  0  0  0  0  0
  -21.2028  -40.3875   23.1156 C   0  0  2  0  0  0  0  0  0  0  0  0
  -22.6650  -40.8250   23.1816 C   0  0  0  0  0  0  0  0  0  0  0  0
  -23.5212  -39.9080   23.9296 C   0  0  0  0  0  0  0  0  0  0  0  0
  -24.9501  -40.3473   23.9711 C   0  0  0  0  0  0  0  0  0  0  0  0
  -25.2751  -41.4090   23.4300 O   0  0  0  0  0  0  0  0  0  0  0  0
  -25.8283  -39.5157   24.6281 O   0  0  0  0  0  0  0  0  0  0  0  0
  -20.6120  -41.0317   22.0066 N   0  0  0  0  0  0  0  0  0  0  0  0
  -19.9640  -40.3513   20.8878 C   0  0  0  0  0  0  0  0  0  0  0  0
  -19.9135  -39.1341   21.0119 O   0  0  0  0  0  0  0  0  0  0  0  0
  -19.5057  -41.2172   19.8193 C   0  0  2  0  0  0  0  0  0  0  0  0
  -18.4307  -42.1899   20.0983 C   0  0  0  0  0  0  0  0  0  0  0  0
  -18.6417  -43.1774   21.0982 C   0  0  0  0  0  0  0  0  0  0  0  0
  -19.3679  -44.3233   20.8517 C   0  0  0  0  0  0  0  0  0  0  0  0
  -19.5154  -45.3231   21.7780 C   0  0  0  0  0  0  0  0  0  0  0  0
  -18.8917  -45.1378   23.0121 C   0  0  0  0  0  0  0  0  0  0  0  0
  -18.1783  -44.0194   23.2713 C   0  0  0  0  0  0  0  0  0  0  0  0
  -18.0357  -43.0229   22.3358 C   0  0  0  0  0  0  0  0  0  0  0  0
  -19.2127  -40.6029   18.5588 N   0  0  0  0  0  0  0  0  0  0  0  0
  -19.5302  -39.3677   18.0274 C   0  0  0  0  0  0  0  0  0  0  0  0
  -20.1643  -38.4993   18.6363 O   0  0  0  0  0  0  0  0  0  0  0  0
  -19.0786  -39.0781   16.6417 C   0  0  2  0  0  0  0  0  0  0  0  0
  -17.6912  -39.5750   16.3294 C   0  0  0  0  0  0  0  0  0  0  0  0
  -17.4688  -39.1727   14.8902 C   0  0  0  0  0  0  0  0  0  0  0  0
  -18.4077  -39.4434   14.0765 O   0  0  0  0  0  0  0  0  0  0  0  0
  -16.3278  -38.5461   14.4764 O   0  0  0  0  0  0  0  0  0  0  0  0
  -19.1277  -37.6954   16.2900 N   0  0  0  0  0  0  0  0  0  0  0  0
  -20.0251  -37.1454   15.3406 C   0  0  0  0  0  0  0  0  0  0  0  0
  -20.8833  -37.8030   14.7222 O   0  0  0  0  0  0  0  0  0  0  0  0
  -19.8998  -35.7038   15.0913 C   0  0  1  0  0  0  0  0  0  0  0  0
  -20.8202  -35.1480   14.1700 N   0  0  0  0  0  0  0  0  0  0  0  0
  -20.0158  -34.9117   16.3972 C   0  0  0  0  0  0  0  0  0  0  0  0
  -21.2971  -34.9852   16.8969 O   0  0  0  0  0  0  0  0  0  0  0  0
  -24.6621  -31.7959   21.4453 C   0  0  0  0  0  0  0  0  0  0  0  0
  -25.8550  -32.0220   21.7678 O   0  0  0  0  0  0  0  0  0  0  0  0
  -23.7544  -31.6540   22.5342 N   0  0  0  0  0  0  0  0  0  0  0  0
  -24.2303  -31.7782   23.9229 C   0  0  1  0  0  0  0  0  0  0  0  0
  -23.8659  -33.1759   24.4004 C   0  0  0  0  0  0  0  0  0  0  0  0
  -24.3092  -33.3916   25.7941 C   0  0  0  0  0  0  0  0  0  0  0  0
  -25.7598  -33.2787   25.9163 C   0  0  0  0  0  0  0  0  0  0  0  0
  -26.5683  -33.1286   24.9959 O   0  0  0  0  0  0  0  0  0  0  0  0
  -26.3025  -33.3424   27.1995 O   0  0  0  0  0  0  0  0  0  0  0  0
  -23.6242  -30.7622   24.7721 C   0  0  0  0  0  0  0  0  0  0  0  0
  -23.9506  -30.6215   25.9968 O   0  0  0  0  0  0  0  0  0  0  0  0
  -22.6265  -29.8473   24.3301 N   0  0  0  0  0  0  0  0  0  0  0  0
  -22.0542  -28.8625   25.2519 C   0  0  1  0  0  0  0  0  0  0  0  0
  -20.5959  -29.0832   25.2483 C   0  0  0  0  0  0  0  0  0  0  0  0
  -19.8502  -28.1432   26.1669 C   0  0  0  0  0  0  0  0  0  0  0  0
  -18.4127  -28.4739   26.0705 C   0  0  0  0  0  0  0  0  0  0  0  0
  -17.4648  -27.7615   26.8516 N   0  0  0  0  0  0  0  0  0  0  0  0
  -17.9903  -29.3588   25.3306 O   0  0  0  0  0  0  0  0  0  0  0  0
  -22.4009  -27.4992   24.8196 C   0  0  0  0  0  0  0  0  0  0  0  0
  -22.8286  -27.3590   23.6443 O   0  0  0  0  0  0  0  0  0  0  0  0
  -22.2454  -26.4673   25.7054 O   0  0  0  0  0  0  0  0  0  0  0  0
  1  2  1  0
  2  3  1  0
  3  4  1  6
  3  5  1  0
  5  6  1  1
  6  7  1  0
  7  8  2  0
  7  9  1  0
  9 10  1  6
 10 11  1  0
 11 12  2  0
 11 13  1  0
  9 14  1  0
 14 15  1  0
 15 16  2  0
 15 17  1  0
 17 18  1  1
 18 19  1  0
 19 20  2  0
 19 21  1  0
 17 22  1  0
 22 23  1  0
 23 24  2  0
 23 25  1  0
 25 26  1  6
 26 27  1  0
 27 28  1  0
 27 29  1  0
 25 30  1  0
 30 31  1  0
 31 32  2  0
 31 33  1  0
 33 34  1  6
 34 35  1  0
 33 36  1  0
 36 37  1  0
 37 38  2  0
 37 39  1  0
 39 40  1  1
 40 41  1  0
 41 42  2  0
 42 43  1  0
 43 44  2  0
 44 45  1  0
 45 46  2  0
 39 47  1  0
 47 48  1  0
 48 49  2  0
 48 50  1  0
 50 51  1  6
 51 52  1  0
 52 53  1  0
 53 54  2  0
 53 55  1  0
 50 56  1  0
 56 57  1  0
 57 58  2  0
 57 59  1  0
 59 60  1  1
 60 61  1  0
 61 62  1  0
 62 63  2  0
 62 64  1  0
 59 65  1  0
 65 66  1  0
 66 67  2  0
 66 68  1  0
 68 69  1  1
 69 70  1  0
 70 71  2  0
 71 72  1  0
 72 73  2  0
 73 74  1  0
 74 75  2  0
 68 76  1  0
 76 77  1  0
 77 78  2  0
 77 79  1  0
 79 80  1  1
 80 81  1  0
 81 82  2  0
 81 83  1  0
 79 84  1  0
 84 85  1  0
 85 86  2  0
 85 87  1  0
 87 88  1  6
 87 89  1  0
 89 90  1  0
  5 91  1  0
 91 92  2  0
 91 93  1  0
 93 94  1  0
 94 95  1  1
 95 96  1  0
 96 97  1  0
 97 98  2  0
 97 99  1  0
 94100  1  0
100101  2  0
100102  1  0
102103  1  0
103104  1  6
104105  1  0
105106  1  0
106107  1  0
106108  2  0
103109  1  0
109110  2  0
109111  1  0
 46 41  1  0
 75 70  1  0
M  CHG  8  13  -1  21  -1  55  -1  64  -1  83  -1  88   1  99  -1 111  -1
M  END
>  <shape_align_shape_tanimoto>  (2) 
0.24407465887379837

>  <shape_align_color_tanimoto>  (2) 
0.035243219241690799

>  <metric>  (2) 
color

>  <metric_score>  (2) 
0.035

>  <template_pid>  (2) 
1THR

>  <template_shape_score>  (2) 
0.244

>  <template_color_score>  (2) 
0.035

>  <template_combo_score>  (2) 
0.140

$$$$
1THR_combo_pose
     RDKit          3D

111112  0  0  0  0  0  0  0  0999 V2000
  -15.4417  -36.3624   18.2625 C   0  0  0  0  0  0  0  0  0  0  0  0
  -15.8371  -35.8602   19.6369 C   0  0  0  0  0  0  0  0  0  0  0  0
  -16.0632  -34.3644   19.5728 C   0  0  2  0  0  0  0  0  0  0  0  0
  -14.7944  -33.6440   19.1449 C   0  0  0  0  0  0  0  0  0  0  0  0
  -16.7672  -33.7694   20.7069 C   0  0  2  0  0  0  0  0  0  0  0  0
  -16.9364  -32.3201   20.5495 N   0  0  0  0  0  0  0  0  0  0  0  0
  -18.0949  -31.7721   21.1085 C   0  0  0  0  0  0  0  0  0  0  0  0
  -18.8980  -32.5327   21.7365 O   0  0  0  0  0  0  0  0  0  0  0  0
  -18.5212  -30.3314   21.0502 C   0  0  2  0  0  0  0  0  0  0  0  0
  -17.4742  -29.3277   21.1479 C   0  0  0  0  0  0  0  0  0  0  0  0
  -18.0865  -27.9494   21.0636 C   0  0  0  0  0  0  0  0  0  0  0  0
  -19.3345  -27.8843   20.9353 O   0  0  0  0  0  0  0  0  0  0  0  0
  -17.2585  -26.8346   21.1302 O   0  0  0  0  0  0  0  0  0  0  0  0
  -19.6424  -30.1708   21.9959 N   0  0  0  0  0  0  0  0  0  0  0  0
  -20.8813  -30.6740   21.5730 C   0  0  0  0  0  0  0  0  0  0  0  0
  -21.0394  -31.2196   20.4253 O   0  0  0  0  0  0  0  0  0  0  0  0
  -22.1413  -30.6505   22.4025 C   0  0  2  0  0  0  0  0  0  0  0  0
  -21.7703  -31.2391   23.7520 C   0  0  0  0  0  0  0  0  0  0  0  0
  -22.9049  -31.2764   24.6796 C   0  0  0  0  0  0  0  0  0  0  0  0
  -24.0690  -30.9128   24.4759 O   0  0  0  0  0  0  0  0  0  0  0  0
  -22.6303  -31.7923   25.9703 O   0  0  0  0  0  0  0  0  0  0  0  0
  -23.0676  -31.4660   21.6599 N   0  0  0  0  0  0  0  0  0  0  0  0
  -24.3912  -31.2443   21.3282 C   0  0  0  0  0  0  0  0  0  0  0  0
  -25.0522  -30.2310   21.6502 O   0  0  0  0  0  0  0  0  0  0  0  0
  -25.1773  -32.2657   20.5029 C   0  0  2  0  0  0  0  0  0  0  0  0
  -26.2975  -32.8737   21.2554 C   0  0  0  0  0  0  0  0  0  0  0  0
  -27.1879  -33.8244   20.5451 C   0  0  0  0  0  0  0  0  0  0  0  0
  -26.6298  -35.0410   19.9264 C   0  0  0  0  0  0  0  0  0  0  0  0
  -28.1785  -34.3245   21.6279 C   0  0  0  0  0  0  0  0  0  0  0  0
  -24.1815  -33.2817   20.1594 N   0  0  0  0  0  0  0  0  0  0  0  0
  -23.7996  -34.3872   20.9290 C   0  0  0  0  0  0  0  0  0  0  0  0
  -24.3212  -34.6876   22.0577 O   0  0  0  0  0  0  0  0  0  0  0  0
  -22.7206  -35.3330   20.5006 C   0  0  2  0  0  0  0  0  0  0  0  0
  -21.8062  -35.6465   21.6979 C   0  0  0  0  0  0  0  0  0  0  0  0
  -21.2193  -34.5234   22.1980 O   0  0  0  0  0  0  0  0  0  0  0  0
  -21.9739  -34.7113   19.4403 N   0  0  0  0  0  0  0  0  0  0  0  0
  -21.2220  -35.3775   18.4493 C   0  0  0  0  0  0  0  0  0  0  0  0
  -21.1901  -36.6269   18.5197 O   0  0  0  0  0  0  0  0  0  0  0  0
  -20.5417  -34.5490   17.4322 C   0  0  2  0  0  0  0  0  0  0  0  0
  -21.6269  -33.8871   16.5937 C   0  0  0  0  0  0  0  0  0  0  0  0
  -21.0953  -33.0683   15.4973 C   0  0  0  0  0  0  0  0  0  0  0  0
  -20.7953  -31.7361   15.5291 C   0  0  0  0  0  0  0  0  0  0  0  0
  -20.2810  -31.0654   14.4070 C   0  0  0  0  0  0  0  0  0  0  0  0
  -20.0831  -31.8012   13.2437 C   0  0  0  0  0  0  0  0  0  0  0  0
  -20.3766  -33.1436   13.1818 C   0  0  0  0  0  0  0  0  0  0  0  0
  -20.8758  -33.7643   14.2991 C   0  0  0  0  0  0  0  0  0  0  0  0
  -19.6019  -35.2508   16.6709 N   0  0  0  0  0  0  0  0  0  0  0  0
  -19.6348  -36.5616   16.1228 C   0  0  0  0  0  0  0  0  0  0  0  0
  -20.5921  -37.3008   16.2697 O   0  0  0  0  0  0  0  0  0  0  0  0
  -18.4275  -36.9778   15.3479 C   0  0  2  0  0  0  0  0  0  0  0  0
  -18.1525  -36.0007   14.2029 C   0  0  0  0  0  0  0  0  0  0  0  0
  -16.9151  -36.4065   13.4129 C   0  0  0  0  0  0  0  0  0  0  0  0
  -16.6330  -35.4360   12.3029 C   0  0  0  0  0  0  0  0  0  0  0  0
  -17.3792  -34.4459   12.1191 O   0  0  0  0  0  0  0  0  0  0  0  0
  -15.5293  -35.6818   11.5060 O   0  0  0  0  0  0  0  0  0  0  0  0
  -18.5421  -38.3295   14.8702 N   0  0  0  0  0  0  0  0  0  0  0  0
  -17.4846  -39.2521   14.7286 C   0  0  0  0  0  0  0  0  0  0  0  0
  -16.2775  -39.0182   14.9782 O   0  0  0  0  0  0  0  0  0  0  0  0
  -17.8121  -40.6318   14.2420 C   0  0  2  0  0  0  0  0  0  0  0  0
  -17.0435  -41.1080   13.0868 C   0  0  0  0  0  0  0  0  0  0  0  0
  -17.1079  -40.3491   11.8189 C   0  0  0  0  0  0  0  0  0  0  0  0
  -18.4687  -40.2293   11.2334 C   0  0  0  0  0  0  0  0  0  0  0  0
  -19.0700  -41.3125   10.9872 O   0  0  0  0  0  0  0  0  0  0  0  0
  -18.9660  -38.9795   11.0074 O   0  0  0  0  0  0  0  0  0  0  0  0
  -19.2500  -40.7667   14.1931 N   0  0  0  0  0  0  0  0  0  0  0  0
  -19.8617  -41.4737   15.2662 C   0  0  0  0  0  0  0  0  0  0  0  0
  -19.1590  -41.9792   16.2161 O   0  0  0  0  0  0  0  0  0  0  0  0
  -21.3187  -41.6986   15.4119 C   0  0  2  0  0  0  0  0  0  0  0  0
  -21.6693  -43.1723   15.6049 C   0  0  0  0  0  0  0  0  0  0  0  0
  -23.1257  -43.2813   15.7842 C   0  0  0  0  0  0  0  0  0  0  0  0
  -23.6262  -43.0606   17.0779 C   0  0  0  0  0  0  0  0  0  0  0  0
  -24.9622  -43.1447   17.3710 C   0  0  0  0  0  0  0  0  0  0  0  0
  -25.8803  -43.4562   16.3747 C   0  0  0  0  0  0  0  0  0  0  0  0
  -25.4130  -43.6802   15.0905 C   0  0  0  0  0  0  0  0  0  0  0  0
  -24.0440  -43.5870   14.8267 C   0  0  0  0  0  0  0  0  0  0  0  0
  -22.0565  -41.0704   14.3588 N   0  0  0  0  0  0  0  0  0  0  0  0
  -22.2028  -41.5331   13.0321 C   0  0  0  0  0  0  0  0  0  0  0  0
  -21.6141  -42.5992   12.7272 O   0  0  0  0  0  0  0  0  0  0  0  0
  -23.0333  -40.7475   12.0846 C   0  0  2  0  0  0  0  0  0  0  0  0
  -22.4384  -40.4771   10.7593 C   0  0  0  0  0  0  0  0  0  0  0  0
  -22.1178  -41.6678    9.9518 C   0  0  0  0  0  0  0  0  0  0  0  0
  -22.3196  -42.8562   10.2770 O   0  0  0  0  0  0  0  0  0  0  0  0
  -21.5269  -41.4388    8.7005 O   0  0  0  0  0  0  0  0  0  0  0  0
  -23.5125  -39.5636   12.7362 N   0  0  0  0  0  0  0  0  0  0  0  0
  -24.8761  -39.5142   13.1426 C   0  0  0  0  0  0  0  0  0  0  0  0
  -25.6798  -40.4808   12.9582 O   0  0  0  0  0  0  0  0  0  0  0  0
  -25.4431  -38.3082   13.8152 C   0  0  1  0  0  0  0  0  0  0  0  0
  -26.8386  -38.6364   14.1354 N   0  0  0  0  0  0  0  0  0  0  0  0
  -24.7413  -38.0156   15.1105 C   0  0  0  0  0  0  0  0  0  0  0  0
  -24.7504  -39.0890   15.9933 O   0  0  0  0  0  0  0  0  0  0  0  0
  -16.2536  -34.1258   22.0777 C   0  0  0  0  0  0  0  0  0  0  0  0
  -16.1318  -35.3867   22.2337 O   0  0  0  0  0  0  0  0  0  0  0  0
  -15.9665  -33.1462   23.0202 N   0  0  0  0  0  0  0  0  0  0  0  0
  -15.4818  -33.1201   24.3419 C   0  0  1  0  0  0  0  0  0  0  0  0
  -16.3367  -32.3350   25.2963 C   0  0  0  0  0  0  0  0  0  0  0  0
  -16.4905  -30.9003   24.9207 C   0  0  0  0  0  0  0  0  0  0  0  0
  -17.3645  -30.2809   25.9707 C   0  0  0  0  0  0  0  0  0  0  0  0
  -17.8352  -30.9430   26.9370 O   0  0  0  0  0  0  0  0  0  0  0  0
  -17.6489  -28.9228   25.8495 O   0  0  0  0  0  0  0  0  0  0  0  0
  -14.9967  -34.3219   25.0238 C   0  0  0  0  0  0  0  0  0  0  0  0
  -15.1485  -34.3301   26.3113 O   0  0  0  0  0  0  0  0  0  0  0  0
  -14.3861  -35.4594   24.5043 N   0  0  0  0  0  0  0  0  0  0  0  0
  -14.0207  -36.5293   25.4082 C   0  0  1  0  0  0  0  0  0  0  0  0
  -14.8855  -37.7628   25.0950 C   0  0  0  0  0  0  0  0  0  0  0  0
  -16.3517  -37.4028   25.2860 C   0  0  0  0  0  0  0  0  0  0  0  0
  -17.1859  -38.5809   24.9807 C   0  0  0  0  0  0  0  0  0  0  0  0
  -18.6136  -38.3943   25.1196 N   0  0  0  0  0  0  0  0  0  0  0  0
  -16.6964  -39.6800   24.6224 O   0  0  0  0  0  0  0  0  0  0  0  0
  -12.6193  -36.9096   25.1585 C   0  0  0  0  0  0  0  0  0  0  0  0
  -12.3318  -37.9335   24.4681 O   0  0  0  0  0  0  0  0  0  0  0  0
  -11.5652  -36.1615   25.6731 O   0  0  0  0  0  0  0  0  0  0  0  0
  1  2  1  0
  2  3  1  0
  3  4  1  1
  3  5  1  0
  5  6  1  6
  6  7  1  0
  7  8  2  0
  7  9  1  0
  9 10  1  1
 10 11  1  0
 11 12  2  0
 11 13  1  0
  9 14  1  0
 14 15  1  0
 15 16  2  0
 15 17  1  0
 17 18  1  1
 18 19  1  0
 19 20  2  0
 19 21  1  0
 17 22  1  0
 22 23  1  0
 23 24  2  0
 23 25  1  0
 25 26  1  1
 26 27  1  0
 27 28  1  0
 27 29  1  0
 25 30  1  0
 30 31  1  0
 31 32  2  0
 31 33  1  0
 33 34  1  1
 34 35  1  0
 33 36  1  0
 36 37  1  0
 37 38  2  0
 37 39  1  0
 39 40  1  6
 40 41  1  0
 41 42  2  0
 42 43  1  0
 43 44  2  0
 44 45  1  0
 45 46  2  0
 39 47  1  0
 47 48  1  0
 48 49  2  0
 48 50  1  0
 50 51  1  6
 51 52  1  0
 52 53  1  0
 53 54  2  0
 53 55  1  0
 50 56  1  0
 56 57  1  0
 57 58  2  0
 57 59  1  0
 59 60  1  6
 60 61  1  0
 61 62  1  0
 62 63  2  0
 62 64  1  0
 59 65  1  0
 65 66  1  0
 66 67  2  0
 66 68  1  0
 68 69  1  6
 69 70  1  0
 70 71  2  0
 71 72  1  0
 72 73  2  0
 73 74  1  0
 74 75  2  0
 68 76  1  0
 76 77  1  0
 77 78  2  0
 77 79  1  0
 79 80  1  6
 80 81  1  0
 81 82  2  0
 81 83  1  0
 79 84  1  0
 84 85  1  0
 85 86  2  0
 85 87  1  0
 87 88  1  1
 87 89  1  0
 89 90  1  0
  5 91  1  0
 91 92  2  0
 91 93  1  0
 93 94  1  0
 94 95  1  1
 95 96  1  0
 96 97  1  0
 97 98  2  0
 97 99  1  0
 94100  1  0
100101  2  0
100102  1  0
102103  1  0
103104  1  6
104105  1  0
105106  1  0
106107  1  0
106108  2  0
103109  1  0
109110  2  0
109111  1  0
 46 41  1  0
 75 70  1  0
M  CHG  8  13  -1  21  -1  55  -1  64  -1  83  -1  88   1  99  -1 111  -1
M  END
>  <shape_align_shape_tanimoto>  (3) 
0.27028935335871407

>  <shape_align_color_tanimoto>  (3) 
0.030540722260828861

>  <metric>  (3) 
combo

>  <metric_score>  (3) 
0.150

>  <template_pid>  (3) 
1THR

>  <template_shape_score>  (3) 
0.270

>  <template_color_score>  (3) 
0.031

>  <template_combo_score>  (3) 
0.150

$$$$
