1LHC_shape_pose
     RDKit          3D

 33 34  0  0  0  0  0  0  0  0999 V2000
   17.5836  -15.4981   16.8879 C   0  0  0  0  0  0  0  0  0  0  0  0
   17.3489  -14.6690   15.6804 C   0  0  0  0  0  0  0  0  0  0  0  0
   18.2512  -14.7015   14.7966 O   0  0  0  0  0  0  0  0  0  0  0  0
   16.1669  -13.8651   15.5081 N   0  0  0  0  0  0  0  0  0  0  0  0
   16.0803  -13.1130   14.2981 C   0  0  2  0  0  0  0  0  0  0  0  0
   16.4924  -11.6796   14.6883 C   0  0  0  0  0  0  0  0  0  0  0  0
   16.4648  -10.7515   13.5453 C   0  0  0  0  0  0  0  0  0  0  0  0
   15.3833   -9.9848   13.1764 C   0  0  0  0  0  0  0  0  0  0  0  0
   15.3943   -9.1274   12.0981 C   0  0  0  0  0  0  0  0  0  0  0  0
   16.5453   -9.0359   11.3565 C   0  0  0  0  0  0  0  0  0  0  0  0
   17.6646   -9.7951   11.6959 C   0  0  0  0  0  0  0  0  0  0  0  0
   17.6302  -10.6460   12.7786 C   0  0  0  0  0  0  0  0  0  0  0  0
   14.8533  -13.1594   13.5755 C   0  0  0  0  0  0  0  0  0  0  0  0
   14.8444  -12.5471   12.4182 O   0  0  0  0  0  0  0  0  0  0  0  0
   13.5875  -13.7526   13.8618 N   0  0  0  0  0  0  0  0  0  0  0  0
   12.5411  -13.5604   12.8041 C   0  0  0  0  0  0  0  0  0  0  0  0
   11.5608  -14.6464   13.1138 C   0  0  0  0  0  0  0  0  0  0  0  0
   11.5757  -14.6553   14.6346 C   0  0  0  0  0  0  0  0  0  0  0  0
   13.0737  -14.4840   14.9549 C   0  0  1  0  0  0  0  0  0  0  0  0
   13.5673  -15.8774   15.1107 C   0  0  0  0  0  0  0  0  0  0  0  0
   14.5398  -16.3448   14.4649 O   0  0  0  0  0  0  0  0  0  0  0  0
   12.8415  -16.6795   16.0662 N   0  0  0  0  0  0  0  0  0  0  0  0
   13.1396  -18.0461   16.3607 C   0  0  1  0  0  0  0  0  0  0  0  0
   12.9519  -18.4723   17.7652 C   0  0  0  0  0  0  0  0  0  0  0  0
   13.7632  -17.7697   18.8069 C   0  0  0  0  0  0  0  0  0  0  0  0
   15.2322  -17.9263   18.6218 C   0  0  0  0  0  0  0  0  0  0  0  0
   15.7505  -19.2522   18.6571 N   0  0  0  0  0  0  0  0  0  0  0  0
   15.7991  -20.1102   19.7773 C   0  0  0  0  0  0  0  0  0  0  0  0
   16.3672  -21.4241   19.5686 N   0  0  0  0  0  0  0  0  0  0  0  0
   15.3744  -19.7918   20.9434 N   0  0  0  0  0  0  0  0  0  0  0  0
   12.1427  -19.0142   15.4987 B   0  0  0  0  0  0  0  0  0  0  0  0
   12.6031  -20.3919   15.3252 O   0  0  0  0  0  0  0  0  0  0  0  0
   10.7258  -18.9151   15.9271 O   0  0  0  0  0  0  0  0  0  0  0  0
  1  2  1  0
  2  3  2  0
  2  4  1  0
  4  5  1  0
  5  6  1  1
  6  7  1  0
  7  8  2  0
  8  9  1  0
  9 10  2  0
 10 11  1  0
 11 12  2  0
  5 13  1  0
 13 14  2  0
 13 15  1  0
 15 16  1  0
 16 17  1  0
 17 18  1  0
 18 19  1  0
 19 20  1  6
 20 21  2  0
 20 22  1  0
 22 23  1  0
 23 24  1  1
 24 25  1  0
 25 26  1  0
 26 27  1  0
 27 28  1  0
 28 29  1  0
 28 30  2  0
 23 31  1  0
 31 32  1  0
 31 33  1  0
 12  7  1  0
 19 15  1  0
M  CHG  1  30   1
M  END
>  <shape_align_shape_tanimoto>  (1) 
0.65072744015968309

>  <shape_align_color_tanimoto>  (1) 
0.016549094591200224

>  <metric>  (1) 
shape

>  <metric_score>  (1) 
0.651

>  <template_pid>  (1) 
1LHC

>  <template_shape_score>  (1) 
0.651

>  <template_color_score>  (1) 
0.017

>  <template_combo_score>  (1) 
0.334

$$$$
1LHC_color_pose
     RDKit          3D

 33 34  0  0  0  0  0  0  0  0999 V2000
   11.9089  -18.2288   12.6993 C   0  0  0  0  0  0  0  0  0  0  0  0
   12.7864  -18.6717   13.8086 C   0  0  0  0  0  0  0  0  0  0  0  0
   14.0078  -18.8496   13.5398 O   0  0  0  0  0  0  0  0  0  0  0  0
   12.3096  -18.8933   15.1182 N   0  0  0  0  0  0  0  0  0  0  0  0
   13.1894  -19.3144   16.1398 C   0  0  2  0  0  0  0  0  0  0  0  0
   12.7486  -20.5254   16.9194 C   0  0  0  0  0  0  0  0  0  0  0  0
   12.5633  -21.7401   16.1031 C   0  0  0  0  0  0  0  0  0  0  0  0
   13.6292  -22.6207   15.8891 C   0  0  0  0  0  0  0  0  0  0  0  0
   13.4260  -23.7376   15.1292 C   0  0  0  0  0  0  0  0  0  0  0  0
   12.2146  -24.0521   14.5527 C   0  0  0  0  0  0  0  0  0  0  0  0
   11.1457  -23.1840   14.7580 C   0  0  0  0  0  0  0  0  0  0  0  0
   11.3260  -22.0480   15.5225 C   0  0  0  0  0  0  0  0  0  0  0  0
   13.6249  -18.2716   17.0684 C   0  0  0  0  0  0  0  0  0  0  0  0
   14.3340  -18.6825   18.0673 O   0  0  0  0  0  0  0  0  0  0  0  0
   13.3927  -16.8852   17.0420 N   0  0  0  0  0  0  0  0  0  0  0  0
   13.9468  -16.0437   18.1364 C   0  0  0  0  0  0  0  0  0  0  0  0
   13.0715  -14.8294   18.0842 C   0  0  0  0  0  0  0  0  0  0  0  0
   12.0457  -15.0221   17.0125 C   0  0  0  0  0  0  0  0  0  0  0  0
   12.6981  -16.0371   16.1000 C   0  0  1  0  0  0  0  0  0  0  0  0
   13.5923  -15.3994   15.1007 C   0  0  0  0  0  0  0  0  0  0  0  0
   13.0148  -14.5970   14.2868 O   0  0  0  0  0  0  0  0  0  0  0  0
   14.9708  -15.6256   15.0125 N   0  0  0  0  0  0  0  0  0  0  0  0
   15.8598  -15.0103   14.0440 C   0  0  1  0  0  0  0  0  0  0  0  0
   16.9776  -14.2669   14.7563 C   0  0  0  0  0  0  0  0  0  0  0  0
   16.4863  -13.1700   15.6543 C   0  0  0  0  0  0  0  0  0  0  0  0
   15.7221  -12.1150   14.9229 C   0  0  0  0  0  0  0  0  0  0  0  0
   16.5986  -11.5155   13.9133 N   0  0  0  0  0  0  0  0  0  0  0  0
   16.1556  -10.4732   13.0502 C   0  0  0  0  0  0  0  0  0  0  0  0
   17.0365   -9.9191   12.0841 N   0  0  0  0  0  0  0  0  0  0  0  0
   14.9513  -10.0646   13.1796 N   0  0  0  0  0  0  0  0  0  0  0  0
   16.5099  -16.1103   13.0944 B   0  0  0  0  0  0  0  0  0  0  0  0
   16.1845  -16.0770   11.6769 O   0  0  0  0  0  0  0  0  0  0  0  0
   17.7780  -16.7321   13.4682 O   0  0  0  0  0  0  0  0  0  0  0  0
  1  2  1  0
  2  3  2  0
  2  4  1  0
  4  5  1  0
  5  6  1  1
  6  7  1  0
  7  8  2  0
  8  9  1  0
  9 10  2  0
 10 11  1  0
 11 12  2  0
  5 13  1  0
 13 14  2  0
 13 15  1  0
 15 16  1  0
 16 17  1  0
 17 18  1  0
 18 19  1  0
 19 20  1  6
 20 21  2  0
 20 22  1  0
 22 23  1  0
 23 24  1  1
 24 25  1  0
 25 26  1  0
 26 27  1  0
 27 28  1  0
 28 29  1  0
 28 30  2  0
 23 31  1  0
 31 32  1  0
 31 33  1  0
 12  7  1  0
 19 15  1  0
M  CHG  1  30   1
M  END
>  <shape_align_shape_tanimoto>  (2) 
0.4307338367625993

>  <shape_align_color_tanimoto>  (2) 
0.17288913551867066

>  <metric>  (2) 
color

>  <metric_score>  (2) 
0.173

>  <template_pid>  (2) 
1LHC

>  <template_shape_score>  (2) 
0.431

>  <template_color_score>  (2) 
0.173

>  <template_combo_score>  (2) 
0.302

$$$$
1LHC_combo_pose
     RDKit          3D

 33 34  0  0  0  0  0  0  0  0999 V2000
   17.5836  -15.4981   16.8879 C   0  0  0  0  0  0  0  0  0  0  0  0
   17.3489  -14.6690   15.6804 C   0  0  0  0  0  0  0  0  0  0  0  0
   18.2512  -14.7015   14.7966 O   0  0  0  0  0  0  0  0  0  0  0  0
   16.1669  -13.8651   15.5081 N   0  0  0  0  0  0  0  0  0  0  0  0
   16.0803  -13.1130   14.2981 C   0  0  2  0  0  0  0  0  0  0  0  0
   16.4924  -11.6796   14.6883 C   0  0  0  0  0  0  0  0  0  0  0  0
   16.4648  -10.7515   13.5453 C   0  0  0  0  0  0  0  0  0  0  0  0
   15.3833   -9.9848   13.1764 C   0  0  0  0  0  0  0  0  0  0  0  0
   15.3943   -9.1274   12.0981 C   0  0  0  0  0  0  0  0  0  0  0  0
   16.5453   -9.0359   11.3565 C   0  0  0  0  0  0  0  0  0  0  0  0
   17.6646   -9.7951   11.6959 C   0  0  0  0  0  0  0  0  0  0  0  0
   17.6302  -10.6460   12.7786 C   0  0  0  0  0  0  0  0  0  0  0  0
   14.8533  -13.1594   13.5755 C   0  0  0  0  0  0  0  0  0  0  0  0
   14.8444  -12.5471   12.4182 O   0  0  0  0  0  0  0  0  0  0  0  0
   13.5875  -13.7526   13.8618 N   0  0  0  0  0  0  0  0  0  0  0  0
   12.5411  -13.5604   12.8041 C   0  0  0  0  0  0  0  0  0  0  0  0
   11.5608  -14.6464   13.1138 C   0  0  0  0  0  0  0  0  0  0  0  0
   11.5757  -14.6553   14.6346 C   0  0  0  0  0  0  0  0  0  0  0  0
   13.0737  -14.4840   14.9549 C   0  0  1  0  0  0  0  0  0  0  0  0
   13.5673  -15.8774   15.1107 C   0  0  0  0  0  0  0  0  0  0  0  0
   14.5398  -16.3448   14.4649 O   0  0  0  0  0  0  0  0  0  0  0  0
   12.8415  -16.6795   16.0662 N   0  0  0  0  0  0  0  0  0  0  0  0
   13.1396  -18.0461   16.3607 C   0  0  1  0  0  0  0  0  0  0  0  0
   12.9519  -18.4723   17.7652 C   0  0  0  0  0  0  0  0  0  0  0  0
   13.7632  -17.7697   18.8069 C   0  0  0  0  0  0  0  0  0  0  0  0
   15.2322  -17.9263   18.6218 C   0  0  0  0  0  0  0  0  0  0  0  0
   15.7505  -19.2522   18.6571 N   0  0  0  0  0  0  0  0  0  0  0  0
   15.7991  -20.1102   19.7773 C   0  0  0  0  0  0  0  0  0  0  0  0
   16.3672  -21.4241   19.5686 N   0  0  0  0  0  0  0  0  0  0  0  0
   15.3744  -19.7918   20.9434 N   0  0  0  0  0  0  0  0  0  0  0  0
   12.1427  -19.0142   15.4987 B   0  0  0  0  0  0  0  0  0  0  0  0
   12.6031  -20.3919   15.3252 O   0  0  0  0  0  0  0  0  0  0  0  0
   10.7258  -18.9151   15.9271 O   0  0  0  0  0  0  0  0  0  0  0  0
  1  2  1  0
  2  3  2  0
  2  4  1  0
  4  5  1  0
  5  6  1  1
  6  7  1  0
  7  8  2  0
  8  9  1  0
  9 10  2  0
 10 11  1  0
 11 12  2  0
  5 13  1  0
 13 14  2  0
 13 15  1  0
 15 16  1  0
 16 17  1  0
 17 18  1  0
 18 19  1  0
 19 20  1  6
 20 21  2  0
 20 22  1  0
 22 23  1  0
 23 24  1  1
 24 25  1  0
 25 26  1  0
 26 27  1  0
 27 28  1  0
 28 29  1  0
 28 30  2  0
 23 31  1  0
 31 32  1  0
 31 33  1  0
 12  7  1  0
 19 15  1  0
M  CHG  1  30   1
M  END
>  <shape_align_shape_tanimoto>  (3) 
0.65072744015968309

>  <shape_align_color_tanimoto>  (3) 
0.016549094591200224

>  <metric>  (3) 
combo

>  <metric_score>  (3) 
0.334

>  <template_pid>  (3) 
1LHC

>  <template_shape_score>  (3) 
0.651

>  <template_color_score>  (3) 
0.017

>  <template_combo_score>  (3) 
0.334

$$$$
