3RG2_shape_pose
     RDKit          3D

 52 55  0  0  0  0  0  0  0  0999 V2000
    7.0492  -15.7185   25.2342 C   0  0  0  0  0  0  0  0  0  0  0  0
    5.7401  -15.0239   25.3586 C   0  0  0  0  0  0  0  0  0  0  0  0
    4.9280  -15.5996   24.1249 C   0  0  0  0  0  0  0  0  0  0  0  0
    5.7410  -13.5387   25.1519 C   0  0  0  0  0  0  0  0  0  0  0  0
    4.4312  -13.0174   25.3078 O   0  0  0  0  0  0  0  0  0  0  0  0
    4.4019  -11.3807   24.9217 P   0  0  1  0  0  5  0  0  0  0  0  0
    4.5697  -11.1692   23.4132 O   0  0  0  0  0  0  0  0  0  0  0  0
    2.9455  -10.6608   25.3991 O   0  0  0  0  0  0  0  0  0  0  0  0
    4.8837  -15.4046   26.5056 C   0  0  1  0  0  0  0  0  0  0  0  0
    4.5993  -16.7936   26.2894 O   0  0  0  0  0  0  0  0  0  0  0  0
    5.4223  -15.2464   27.8517 C   0  0  0  0  0  0  0  0  0  0  0  0
    5.5653  -16.3395   28.5283 O   0  0  0  0  0  0  0  0  0  0  0  0
    5.8066  -14.0790   28.5167 N   0  0  0  0  0  0  0  0  0  0  0  0
    6.3135  -14.2244   29.8700 C   0  0  0  0  0  0  0  0  0  0  0  0
    6.7239  -12.9383   30.4873 C   0  0  0  0  0  0  0  0  0  0  0  0
    7.8180  -12.2554   29.7508 C   0  0  0  0  0  0  0  0  0  0  0  0
    8.1947  -12.7727   28.6776 O   0  0  0  0  0  0  0  0  0  0  0  0
    8.3578  -11.0747   30.3123 N   0  0  0  0  0  0  0  0  0  0  0  0
    9.4503  -10.3246   29.6693 C   0  0  0  0  0  0  0  0  0  0  0  0
   10.6664  -11.1774   29.5259 C   0  0  0  0  0  0  0  0  0  0  0  0
   12.0968  -10.4642   28.7857 S   0  0  0  0  0  0  0  0  0  0  0  0
   13.0856   -9.3146   29.6691 C   0  0  2  0  0  0  0  0  0  0  0  0
   13.8336   -9.9272   30.8499 C   0  0  0  0  0  0  0  0  0  0  0  0
   14.9188  -11.2133   30.2295 S   0  0  0  0  0  0  0  0  0  0  0  0
   15.8859  -10.6974   29.2186 O   0  0  0  0  0  0  0  0  0  0  0  0
   14.0485  -12.2469   29.5717 O   0  0  0  0  0  0  0  0  0  0  0  0
   15.7992  -11.9036   31.5599 N   0  0  0  0  0  0  0  0  0  0  0  0
   16.6056  -10.8646   32.1692 C   0  0  0  0  0  0  0  0  0  0  0  0
   17.4258  -11.3698   33.3499 C   0  0  1  0  0  0  0  0  0  0  0  0
   16.6424  -11.8813   34.3326 O   0  0  0  0  0  0  0  0  0  0  0  0
   16.8702  -13.2024   34.5609 C   0  0  1  0  0  0  0  0  0  0  0  0
   15.6187  -13.9774   34.5951 N   0  0  0  0  0  0  0  0  0  0  0  0
   15.6057  -15.3100   34.8577 C   0  0  0  0  0  0  0  0  0  0  0  0
   14.2989  -15.7031   34.8093 N   0  0  0  0  0  0  0  0  0  0  0  0
   13.5443  -14.6493   34.5273 C   0  0  0  0  0  0  0  0  0  0  0  0
   12.1823  -14.4938   34.3649 C   0  0  0  0  0  0  0  0  0  0  0  0
   11.3600  -15.6458   34.5139 N   0  0  0  0  0  0  0  0  0  0  0  0
   11.6979  -13.2730   34.0767 N   0  0  0  0  0  0  0  0  0  0  0  0
   12.5157  -12.1876   33.9412 C   0  0  0  0  0  0  0  0  0  0  0  0
   13.8673  -12.3187   34.0977 N   0  0  0  0  0  0  0  0  0  0  0  0
   14.3690  -13.5314   34.3858 C   0  0  0  0  0  0  0  0  0  0  0  0
   17.7796  -13.7089   33.4734 C   0  0  2  0  0  0  0  0  0  0  0  0
   18.7761  -14.5608   33.9507 O   0  0  0  0  0  0  0  0  0  0  0  0
   18.3156  -12.4569   32.8818 C   0  0  2  0  0  0  0  0  0  0  0  0
   19.6391  -12.3077   33.3129 O   0  0  0  0  0  0  0  0  0  0  0  0
   12.4255   -8.0650   30.0110 C   0  0  0  0  0  0  0  0  0  0  0  0
   12.5460   -6.9764   29.1642 C   0  0  0  0  0  0  0  0  0  0  0  0
   11.9650   -5.7551   29.3832 C   0  0  0  0  0  0  0  0  0  0  0  0
   11.1958   -5.5571   30.5198 C   0  0  0  0  0  0  0  0  0  0  0  0
   11.0634   -6.6254   31.3739 C   0  0  0  0  0  0  0  0  0  0  0  0
   11.6533   -7.8538   31.1451 C   0  0  0  0  0  0  0  0  0  0  0  0
   11.4827   -8.9013   32.0511 O   0  0  0  0  0  0  0  0  0  0  0  0
  1  2  1  0
  2  3  1  0
  2  4  1  0
  4  5  1  0
  5  6  1  0
  6  7  2  0
  6  8  1  6
  2  9  1  0
  9 10  1  6
  9 11  1  0
 11 12  2  0
 11 13  1  0
 13 14  1  0
 14 15  1  0
 15 16  1  0
 16 17  2  0
 16 18  1  0
 18 19  1  0
 19 20  1  0
 20 21  1  0
 21 22  1  0
 22 23  1  1
 23 24  1  0
 24 25  2  0
 24 26  2  0
 24 27  1  0
 27 28  1  0
 29 28  1  6
 29 30  1  0
 30 31  1  0
 31 32  1  6
 32 33  1  0
 33 34  2  0
 34 35  1  0
 35 36  2  0
 36 37  1  0
 36 38  1  0
 38 39  2  0
 39 40  1  0
 40 41  2  0
 31 42  1  0
 42 43  1  1
 42 44  1  0
 44 45  1  1
 22 46  1  0
 46 47  2  0
 47 48  1  0
 48 49  2  0
 49 50  1  0
 50 51  2  0
 51 52  1  0
 44 29  1  0
 51 46  1  0
 41 32  1  0
 41 35  1  0
M  END
>  <shape_align_shape_tanimoto>  (1) 
0.48613807685932447

>  <shape_align_color_tanimoto>  (1) 
0.043652315126244526

>  <metric>  (1) 
shape

>  <metric_score>  (1) 
0.486

>  <template_pid>  (1) 
3RG2

>  <template_shape_score>  (1) 
0.486

>  <template_color_score>  (1) 
0.044

>  <template_combo_score>  (1) 
0.265

$$$$
3RG2_color_pose
     RDKit          3D

 52 55  0  0  0  0  0  0  0  0999 V2000
    6.8445  -17.4975   26.8012 C   0  0  0  0  0  0  0  0  0  0  0  0
    5.4512  -16.9008   26.5947 C   0  0  0  0  0  0  0  0  0  0  0  0
    5.0727  -17.1476   25.1626 C   0  0  0  0  0  0  0  0  0  0  0  0
    4.4470  -17.6523   27.4685 C   0  0  0  0  0  0  0  0  0  0  0  0
    4.8296  -17.5207   28.8188 O   0  0  0  0  0  0  0  0  0  0  0  0
    3.8474  -18.5116   29.7956 P   0  0  1  0  0  5  0  0  0  0  0  0
    3.4871  -19.7879   29.0632 O   0  0  0  0  0  0  0  0  0  0  0  0
    4.6453  -18.8146   31.2459 O   0  0  0  0  0  0  0  0  0  0  0  0
    5.4425  -15.4425   26.9591 C   0  0  1  0  0  0  0  0  0  0  0  0
    4.1997  -14.8347   26.7893 O   0  0  0  0  0  0  0  0  0  0  0  0
    5.8270  -15.2360   28.3746 C   0  0  0  0  0  0  0  0  0  0  0  0
    6.9163  -15.7367   28.7514 O   0  0  0  0  0  0  0  0  0  0  0  0
    5.0045  -14.4971   29.2991 N   0  0  0  0  0  0  0  0  0  0  0  0
    5.3953  -14.3074   30.6822 C   0  0  0  0  0  0  0  0  0  0  0  0
    6.7061  -13.5807   30.7812 C   0  0  0  0  0  0  0  0  0  0  0  0
    6.6560  -12.2270   30.1657 C   0  0  0  0  0  0  0  0  0  0  0  0
    5.6020  -11.7460   29.6623 O   0  0  0  0  0  0  0  0  0  0  0  0
    7.8908  -11.4816   30.1732 N   0  0  0  0  0  0  0  0  0  0  0  0
    7.9646  -10.1382   29.6032 C   0  0  0  0  0  0  0  0  0  0  0  0
    9.4286   -9.6948   29.7907 C   0  0  0  0  0  0  0  0  0  0  0  0
   10.5361  -10.8083   28.9219 S   0  0  0  0  0  0  0  0  0  0  0  0
   12.2745  -10.5458   29.1845 C   0  0  2  0  0  0  0  0  0  0  0  0
   12.7546  -10.8605   30.5978 C   0  0  0  0  0  0  0  0  0  0  0  0
   14.4917  -10.5553   30.6790 S   0  0  0  0  0  0  0  0  0  0  0  0
   14.7933   -9.1053   30.4290 O   0  0  0  0  0  0  0  0  0  0  0  0
   15.2454  -11.3727   29.6832 O   0  0  0  0  0  0  0  0  0  0  0  0
   15.0612  -10.9178   32.2805 N   0  0  0  0  0  0  0  0  0  0  0  0
   14.8320  -12.3275   32.5845 C   0  0  0  0  0  0  0  0  0  0  0  0
   15.3366  -12.6049   33.9792 C   0  0  1  0  0  0  0  0  0  0  0  0
   15.1443  -13.9356   34.3416 O   0  0  0  0  0  0  0  0  0  0  0  0
   16.2278  -14.2706   35.1738 C   0  0  1  0  0  0  0  0  0  0  0  0
   16.2447  -15.6889   35.3935 N   0  0  0  0  0  0  0  0  0  0  0  0
   17.2766  -16.5458   35.2196 C   0  0  0  0  0  0  0  0  0  0  0  0
   16.8646  -17.8041   35.5423 N   0  0  0  0  0  0  0  0  0  0  0  0
   15.5635  -17.7258   35.9195 C   0  0  0  0  0  0  0  0  0  0  0  0
   14.6814  -18.7101   36.3394 C   0  0  0  0  0  0  0  0  0  0  0  0
   15.0904  -20.0725   36.4325 N   0  0  0  0  0  0  0  0  0  0  0  0
   13.4267  -18.3082   36.6522 N   0  0  0  0  0  0  0  0  0  0  0  0
   13.0218  -17.0388   36.5725 C   0  0  0  0  0  0  0  0  0  0  0  0
   13.9165  -16.1085   36.1576 N   0  0  0  0  0  0  0  0  0  0  0  0
   15.1893  -16.4078   35.8234 C   0  0  0  0  0  0  0  0  0  0  0  0
   17.3700  -13.7738   34.3406 C   0  0  2  0  0  0  0  0  0  0  0  0
   18.5651  -13.7147   35.0135 O   0  0  0  0  0  0  0  0  0  0  0  0
   16.8442  -12.3795   33.9657 C   0  0  2  0  0  0  0  0  0  0  0  0
   17.2355  -11.5349   35.0021 O   0  0  0  0  0  0  0  0  0  0  0  0
   12.6624   -9.1488   28.8980 C   0  0  0  0  0  0  0  0  0  0  0  0
   12.1700   -8.0506   29.5596 C   0  0  0  0  0  0  0  0  0  0  0  0
   12.5747   -6.7522   29.2827 C   0  0  0  0  0  0  0  0  0  0  0  0
   13.5119   -6.5072   28.3075 C   0  0  0  0  0  0  0  0  0  0  0  0
   14.0179   -7.5962   27.6332 C   0  0  0  0  0  0  0  0  0  0  0  0
   13.6161   -8.8787   27.9087 C   0  0  0  0  0  0  0  0  0  0  0  0
   14.1938   -9.8985   27.1656 O   0  0  0  0  0  0  0  0  0  0  0  0
  1  2  1  0
  2  3  1  0
  2  4  1  0
  4  5  1  0
  5  6  1  0
  6  7  2  0
  6  8  1  1
  2  9  1  0
  9 10  1  1
  9 11  1  0
 11 12  2  0
 11 13  1  0
 13 14  1  0
 14 15  1  0
 15 16  1  0
 16 17  2  0
 16 18  1  0
 18 19  1  0
 19 20  1  0
 20 21  1  0
 21 22  1  0
 22 23  1  1
 23 24  1  0
 24 25  2  0
 24 26  2  0
 24 27  1  0
 27 28  1  0
 29 28  1  6
 29 30  1  0
 30 31  1  0
 31 32  1  6
 32 33  1  0
 33 34  2  0
 34 35  1  0
 35 36  2  0
 36 37  1  0
 36 38  1  0
 38 39  2  0
 39 40  1  0
 40 41  2  0
 31 42  1  0
 42 43  1  1
 42 44  1  0
 44 45  1  1
 22 46  1  0
 46 47  2  0
 47 48  1  0
 48 49  2  0
 49 50  1  0
 50 51  2  0
 51 52  1  0
 44 29  1  0
 51 46  1  0
 41 32  1  0
 41 35  1  0
M  END
>  <shape_align_shape_tanimoto>  (2) 
0.34186998708366223

>  <shape_align_color_tanimoto>  (2) 
0.093659626327750531

>  <metric>  (2) 
color

>  <metric_score>  (2) 
0.094

>  <template_pid>  (2) 
3RG2

>  <template_shape_score>  (2) 
0.342

>  <template_color_score>  (2) 
0.094

>  <template_combo_score>  (2) 
0.218

$$$$
3RG2_combo_pose
     RDKit          3D

 52 55  0  0  0  0  0  0  0  0999 V2000
    7.0492  -15.7185   25.2342 C   0  0  0  0  0  0  0  0  0  0  0  0
    5.7401  -15.0239   25.3586 C   0  0  0  0  0  0  0  0  0  0  0  0
    4.9280  -15.5996   24.1249 C   0  0  0  0  0  0  0  0  0  0  0  0
    5.7410  -13.5387   25.1519 C   0  0  0  0  0  0  0  0  0  0  0  0
    4.4312  -13.0174   25.3078 O   0  0  0  0  0  0  0  0  0  0  0  0
    4.4019  -11.3807   24.9217 P   0  0  1  0  0  5  0  0  0  0  0  0
    4.5697  -11.1692   23.4132 O   0  0  0  0  0  0  0  0  0  0  0  0
    2.9455  -10.6608   25.3991 O   0  0  0  0  0  0  0  0  0  0  0  0
    4.8837  -15.4046   26.5056 C   0  0  1  0  0  0  0  0  0  0  0  0
    4.5993  -16.7936   26.2894 O   0  0  0  0  0  0  0  0  0  0  0  0
    5.4223  -15.2464   27.8517 C   0  0  0  0  0  0  0  0  0  0  0  0
    5.5653  -16.3395   28.5283 O   0  0  0  0  0  0  0  0  0  0  0  0
    5.8066  -14.0790   28.5167 N   0  0  0  0  0  0  0  0  0  0  0  0
    6.3135  -14.2244   29.8700 C   0  0  0  0  0  0  0  0  0  0  0  0
    6.7239  -12.9383   30.4873 C   0  0  0  0  0  0  0  0  0  0  0  0
    7.8180  -12.2554   29.7508 C   0  0  0  0  0  0  0  0  0  0  0  0
    8.1947  -12.7727   28.6776 O   0  0  0  0  0  0  0  0  0  0  0  0
    8.3578  -11.0747   30.3123 N   0  0  0  0  0  0  0  0  0  0  0  0
    9.4503  -10.3246   29.6693 C   0  0  0  0  0  0  0  0  0  0  0  0
   10.6664  -11.1774   29.5259 C   0  0  0  0  0  0  0  0  0  0  0  0
   12.0968  -10.4642   28.7857 S   0  0  0  0  0  0  0  0  0  0  0  0
   13.0856   -9.3146   29.6691 C   0  0  2  0  0  0  0  0  0  0  0  0
   13.8336   -9.9272   30.8499 C   0  0  0  0  0  0  0  0  0  0  0  0
   14.9188  -11.2133   30.2295 S   0  0  0  0  0  0  0  0  0  0  0  0
   15.8859  -10.6974   29.2186 O   0  0  0  0  0  0  0  0  0  0  0  0
   14.0485  -12.2469   29.5717 O   0  0  0  0  0  0  0  0  0  0  0  0
   15.7992  -11.9036   31.5599 N   0  0  0  0  0  0  0  0  0  0  0  0
   16.6056  -10.8646   32.1692 C   0  0  0  0  0  0  0  0  0  0  0  0
   17.4258  -11.3698   33.3499 C   0  0  1  0  0  0  0  0  0  0  0  0
   16.6424  -11.8813   34.3326 O   0  0  0  0  0  0  0  0  0  0  0  0
   16.8702  -13.2024   34.5609 C   0  0  1  0  0  0  0  0  0  0  0  0
   15.6187  -13.9774   34.5951 N   0  0  0  0  0  0  0  0  0  0  0  0
   15.6057  -15.3100   34.8577 C   0  0  0  0  0  0  0  0  0  0  0  0
   14.2989  -15.7031   34.8093 N   0  0  0  0  0  0  0  0  0  0  0  0
   13.5443  -14.6493   34.5273 C   0  0  0  0  0  0  0  0  0  0  0  0
   12.1823  -14.4938   34.3649 C   0  0  0  0  0  0  0  0  0  0  0  0
   11.3600  -15.6458   34.5139 N   0  0  0  0  0  0  0  0  0  0  0  0
   11.6979  -13.2730   34.0767 N   0  0  0  0  0  0  0  0  0  0  0  0
   12.5157  -12.1876   33.9412 C   0  0  0  0  0  0  0  0  0  0  0  0
   13.8673  -12.3187   34.0977 N   0  0  0  0  0  0  0  0  0  0  0  0
   14.3690  -13.5314   34.3858 C   0  0  0  0  0  0  0  0  0  0  0  0
   17.7796  -13.7089   33.4734 C   0  0  2  0  0  0  0  0  0  0  0  0
   18.7761  -14.5608   33.9507 O   0  0  0  0  0  0  0  0  0  0  0  0
   18.3156  -12.4569   32.8818 C   0  0  2  0  0  0  0  0  0  0  0  0
   19.6391  -12.3077   33.3129 O   0  0  0  0  0  0  0  0  0  0  0  0
   12.4255   -8.0650   30.0110 C   0  0  0  0  0  0  0  0  0  0  0  0
   12.5460   -6.9764   29.1642 C   0  0  0  0  0  0  0  0  0  0  0  0
   11.9650   -5.7551   29.3832 C   0  0  0  0  0  0  0  0  0  0  0  0
   11.1958   -5.5571   30.5198 C   0  0  0  0  0  0  0  0  0  0  0  0
   11.0634   -6.6254   31.3739 C   0  0  0  0  0  0  0  0  0  0  0  0
   11.6533   -7.8538   31.1451 C   0  0  0  0  0  0  0  0  0  0  0  0
   11.4827   -8.9013   32.0511 O   0  0  0  0  0  0  0  0  0  0  0  0
  1  2  1  0
  2  3  1  0
  2  4  1  0
  4  5  1  0
  5  6  1  0
  6  7  2  0
  6  8  1  6
  2  9  1  0
  9 10  1  6
  9 11  1  0
 11 12  2  0
 11 13  1  0
 13 14  1  0
 14 15  1  0
 15 16  1  0
 16 17  2  0
 16 18  1  0
 18 19  1  0
 19 20  1  0
 20 21  1  0
 21 22  1  0
 22 23  1  1
 23 24  1  0
 24 25  2  0
 24 26  2  0
 24 27  1  0
 27 28  1  0
 29 28  1  6
 29 30  1  0
 30 31  1  0
 31 32  1  6
 32 33  1  0
 33 34  2  0
 34 35  1  0
 35 36  2  0
 36 37  1  0
 36 38  1  0
 38 39  2  0
 39 40  1  0
 40 41  2  0
 31 42  1  0
 42 43  1  1
 42 44  1  0
 44 45  1  1
 22 46  1  0
 46 47  2  0
 47 48  1  0
 48 49  2  0
 49 50  1  0
 50 51  2  0
 51 52  1  0
 44 29  1  0
 51 46  1  0
 41 32  1  0
 41 35  1  0
M  END
>  <shape_align_shape_tanimoto>  (3) 
0.48613807685932447

>  <shape_align_color_tanimoto>  (3) 
0.043652315126244526

>  <metric>  (3) 
combo

>  <metric_score>  (3) 
0.265

>  <template_pid>  (3) 
3RG2

>  <template_shape_score>  (3) 
0.486

>  <template_color_score>  (3) 
0.044

>  <template_combo_score>  (3) 
0.265

$$$$
