1SQA_shape_pose
     RDKit          3D

 31 34  0  0  0  0  0  0  0  0999 V2000
   31.2882   12.3681   26.4367 N   0  0  0  0  0  0  0  0  0  0  0  0
   31.3840   10.9628   26.2399 C   0  0  0  0  0  0  0  0  0  0  0  0
   32.1829   10.5235   25.3251 N   0  0  0  0  0  0  0  0  0  0  0  0
   30.6105   10.0182   27.0373 C   0  0  0  0  0  0  0  0  0  0  0  0
   29.3855   10.4198   27.5161 C   0  0  0  0  0  0  0  0  0  0  0  0
   28.6744    9.5122   28.2654 C   0  0  0  0  0  0  0  0  0  0  0  0
   29.1517    8.2443   28.5380 C   0  0  0  0  0  0  0  0  0  0  0  0
   28.3453    7.4328   29.2978 C   0  0  0  0  0  0  0  0  0  0  0  0
   28.8064    6.1680   29.5777 C   0  0  0  0  0  0  0  0  0  0  0  0
   27.9472    5.3106   30.3841 C   0  0  0  0  0  0  0  0  0  0  0  0
   26.8350    5.7750   30.7779 O   0  0  0  0  0  0  0  0  0  0  0  0
   28.2589    3.9941   30.7637 N   0  0  0  0  0  0  0  0  0  0  0  0
   27.3495    3.2146   31.5644 C   0  0  0  0  0  0  0  0  0  0  0  0
   26.4075    2.4460   30.9063 C   0  0  0  0  0  0  0  0  0  0  0  0
   25.5302    1.6937   31.6908 C   0  0  0  0  0  0  0  0  0  0  0  0
   25.6167    1.7297   33.0765 C   0  0  0  0  0  0  0  0  0  0  0  0
   24.6428    0.8969   33.8571 C   0  0  0  0  0  0  0  0  0  0  0  0
   23.4296    1.6171   34.1704 N   0  0  0  0  0  0  0  0  0  0  0  0
   26.5630    2.5019   33.7325 C   0  0  0  0  0  0  0  0  0  0  0  0
   27.4381    3.2525   32.9425 C   0  0  0  0  0  0  0  0  0  0  0  0
   30.0424    5.7505   29.0996 C   0  0  0  0  0  0  0  0  0  0  0  0
   30.8713    6.5408   28.3368 C   0  0  0  0  0  0  0  0  0  0  0  0
   32.1299    6.1433   27.8386 N   0  0  0  0  0  0  0  0  0  0  0  0
   32.7543    4.8802   28.0318 C   0  0  0  0  0  0  0  0  0  0  0  0
   33.9739    4.6983   27.4654 N   0  0  0  0  0  0  0  0  0  0  0  0
   34.5943    3.5285   27.6222 C   0  0  0  0  0  0  0  0  0  0  0  0
   34.0527    2.4841   28.3385 C   0  0  0  0  0  0  0  0  0  0  0  0
   32.8189    2.6967   28.8998 C   0  0  0  0  0  0  0  0  0  0  0  0
   32.2354    3.8732   28.7208 N   0  0  0  0  0  0  0  0  0  0  0  0
   30.3763    7.8279   28.0656 C   0  0  0  0  0  0  0  0  0  0  0  0
   31.0912    8.7355   27.3142 C   0  0  0  0  0  0  0  0  0  0  0  0
  1  2  1  0
  2  3  2  0
  2  4  1  0
  4  5  2  0
  5  6  1  0
  6  7  2  0
  7  8  1  0
  8  9  2  0
  9 10  1  0
 10 11  2  0
 10 12  1  0
 12 13  1  0
 13 14  2  0
 14 15  1  0
 15 16  2  0
 16 17  1  0
 17 18  1  0
 16 19  1  0
 19 20  2  0
  9 21  1  0
 21 22  2  0
 22 23  1  0
 23 24  1  0
 24 25  2  0
 25 26  1  0
 26 27  2  0
 27 28  1  0
 28 29  2  0
 22 30  1  0
 30 31  2  0
 31  4  1  0
 30  7  1  0
 20 13  1  0
 29 24  1  0
M  CHG  2   3   1  18   1
M  END
>  <shape_align_shape_tanimoto>  (1) 
0.51180845694218291

>  <shape_align_color_tanimoto>  (1) 
0.056850451456046891

>  <metric>  (1) 
shape

>  <metric_score>  (1) 
0.512

>  <template_pid>  (1) 
1SQA

>  <template_shape_score>  (1) 
0.512

>  <template_color_score>  (1) 
0.057

>  <template_combo_score>  (1) 
0.284

$$$$
1SQA_color_pose
     RDKit          3D

 31 34  0  0  0  0  0  0  0  0999 V2000
   25.6595    4.7330   32.6190 N   0  0  0  0  0  0  0  0  0  0  0  0
   26.5457    4.4359   31.5224 C   0  0  0  0  0  0  0  0  0  0  0  0
   26.8140    3.2271   31.2164 N   0  0  0  0  0  0  0  0  0  0  0  0
   27.1508    5.5171   30.7439 C   0  0  0  0  0  0  0  0  0  0  0  0
   26.4733    6.7074   30.6008 C   0  0  0  0  0  0  0  0  0  0  0  0
   27.0834    7.6951   29.8592 C   0  0  0  0  0  0  0  0  0  0  0  0
   28.3224    7.5095   29.2792 C   0  0  0  0  0  0  0  0  0  0  0  0
   28.8282    8.5729   28.5609 C   0  0  0  0  0  0  0  0  0  0  0  0
   30.0646    8.4108   27.9724 C   0  0  0  0  0  0  0  0  0  0  0  0
   30.5823    9.5483   27.2165 C   0  0  0  0  0  0  0  0  0  0  0  0
   29.8936   10.5948   27.1402 O   0  0  0  0  0  0  0  0  0  0  0  0
   31.8336    9.5483   26.5516 N   0  0  0  0  0  0  0  0  0  0  0  0
   32.3141   10.6762   25.8194 C   0  0  0  0  0  0  0  0  0  0  0  0
   32.0401   10.8410   24.4642 C   0  0  0  0  0  0  0  0  0  0  0  0
   32.5007   11.9281   23.7497 C   0  0  0  0  0  0  0  0  0  0  0  0
   33.2559   12.8723   24.4170 C   0  0  0  0  0  0  0  0  0  0  0  0
   33.7924   14.0729   23.7284 C   0  0  0  0  0  0  0  0  0  0  0  0
   35.1163   13.8012   23.1758 N   0  0  0  0  0  0  0  0  0  0  0  0
   33.5155   12.6975   25.7420 C   0  0  0  0  0  0  0  0  0  0  0  0
   33.0728   11.6347   26.4681 C   0  0  0  0  0  0  0  0  0  0  0  0
   30.7503    7.2207   28.1111 C   0  0  0  0  0  0  0  0  0  0  0  0
   30.2743    6.1379   28.8217 C   0  0  0  0  0  0  0  0  0  0  0  0
   30.9629    4.9142   28.9731 N   0  0  0  0  0  0  0  0  0  0  0  0
   32.2230    4.5860   28.4420 C   0  0  0  0  0  0  0  0  0  0  0  0
   32.9973    5.3691   27.6989 N   0  0  0  0  0  0  0  0  0  0  0  0
   34.1937    5.0189   27.2109 C   0  0  0  0  0  0  0  0  0  0  0  0
   34.6847    3.7776   27.4752 C   0  0  0  0  0  0  0  0  0  0  0  0
   33.9187    2.9274   28.2424 C   0  0  0  0  0  0  0  0  0  0  0  0
   32.7264    3.3388   28.7022 N   0  0  0  0  0  0  0  0  0  0  0  0
   29.0160    6.3239   29.4118 C   0  0  0  0  0  0  0  0  0  0  0  0
   28.4068    5.3339   30.1539 C   0  0  0  0  0  0  0  0  0  0  0  0
  1  2  1  0
  2  3  2  0
  2  4  1  0
  4  5  2  0
  5  6  1  0
  6  7  2  0
  7  8  1  0
  8  9  2  0
  9 10  1  0
 10 11  2  0
 10 12  1  0
 12 13  1  0
 13 14  2  0
 14 15  1  0
 15 16  2  0
 16 17  1  0
 17 18  1  0
 16 19  1  0
 19 20  2  0
  9 21  1  0
 21 22  2  0
 22 23  1  0
 23 24  1  0
 24 25  2  0
 25 26  1  0
 26 27  2  0
 27 28  1  0
 28 29  2  0
 22 30  1  0
 30 31  2  0
 31  4  1  0
 30  7  1  0
 20 13  1  0
 29 24  1  0
M  CHG  2   3   1  18   1
M  END
>  <shape_align_shape_tanimoto>  (2) 
0.4801805957845664

>  <shape_align_color_tanimoto>  (2) 
0.14823820662427964

>  <metric>  (2) 
color

>  <metric_score>  (2) 
0.148

>  <template_pid>  (2) 
1SQA

>  <template_shape_score>  (2) 
0.480

>  <template_color_score>  (2) 
0.148

>  <template_combo_score>  (2) 
0.314

$$$$
1SQA_combo_pose
     RDKit          3D

 31 34  0  0  0  0  0  0  0  0999 V2000
   26.5258    4.1446   30.9265 N   0  0  0  0  0  0  0  0  0  0  0  0
   26.4299    5.5465   31.1324 C   0  0  0  0  0  0  0  0  0  0  0  0
   25.6209    5.9938   32.0438 N   0  0  0  0  0  0  0  0  0  0  0  0
   27.2403    6.4452   30.3172 C   0  0  0  0  0  0  0  0  0  0  0  0
   26.7455    7.7005   30.0488 C   0  0  0  0  0  0  0  0  0  0  0  0
   27.5258    8.5317   29.2785 C   0  0  0  0  0  0  0  0  0  0  0  0
   28.7549    8.1377   28.7882 C   0  0  0  0  0  0  0  0  0  0  0  0
   29.4371    9.0665   28.0288 C   0  0  0  0  0  0  0  0  0  0  0  0
   30.6614    8.6898   27.5337 C   0  0  0  0  0  0  0  0  0  0  0  0
   31.4541    9.6128   26.7177 C   0  0  0  0  0  0  0  0  0  0  0  0
   32.5954    9.2756   26.2502 O   0  0  0  0  0  0  0  0  0  0  0  0
   31.0238   10.9234   26.3914 N   0  0  0  0  0  0  0  0  0  0  0  0
   31.8006   11.8214   25.5944 C   0  0  0  0  0  0  0  0  0  0  0  0
   31.6503   11.8392   24.2172 C   0  0  0  0  0  0  0  0  0  0  0  0
   32.4089   12.7163   23.4378 C   0  0  0  0  0  0  0  0  0  0  0  0
   33.3193   13.5743   24.0583 C   0  0  0  0  0  0  0  0  0  0  0  0
   34.1347   14.5142   23.2441 C   0  0  0  0  0  0  0  0  0  0  0  0
   33.4951   15.7883   23.0531 N   0  0  0  0  0  0  0  0  0  0  0  0
   33.4729   13.5582   25.4489 C   0  0  0  0  0  0  0  0  0  0  0  0
   32.7074   12.6787   26.1903 C   0  0  0  0  0  0  0  0  0  0  0  0
   31.1703    7.4288   27.7969 C   0  0  0  0  0  0  0  0  0  0  0  0
   30.5140    6.4807   28.5506 C   0  0  0  0  0  0  0  0  0  0  0  0
   31.0091    5.1916   28.8332 N   0  0  0  0  0  0  0  0  0  0  0  0
   32.2499    4.6502   28.3990 C   0  0  0  0  0  0  0  0  0  0  0  0
   33.1455    5.2824   27.6509 N   0  0  0  0  0  0  0  0  0  0  0  0
   34.2994    4.7879   27.2433 C   0  0  0  0  0  0  0  0  0  0  0  0
   34.6299    3.5014   27.6130 C   0  0  0  0  0  0  0  0  0  0  0  0
   33.7107    2.8307   28.3900 C   0  0  0  0  0  0  0  0  0  0  0  0
   32.5534    3.3806   28.7760 N   0  0  0  0  0  0  0  0  0  0  0  0
   29.2635    6.8808   29.0498 C   0  0  0  0  0  0  0  0  0  0  0  0
   28.4836    6.0489   29.8203 C   0  0  0  0  0  0  0  0  0  0  0  0
  1  2  1  0
  2  3  2  0
  2  4  1  0
  4  5  2  0
  5  6  1  0
  6  7  2  0
  7  8  1  0
  8  9  2  0
  9 10  1  0
 10 11  2  0
 10 12  1  0
 12 13  1  0
 13 14  2  0
 14 15  1  0
 15 16  2  0
 16 17  1  0
 17 18  1  0
 16 19  1  0
 19 20  2  0
  9 21  1  0
 21 22  2  0
 22 23  1  0
 23 24  1  0
 24 25  2  0
 25 26  1  0
 26 27  2  0
 27 28  1  0
 28 29  2  0
 22 30  1  0
 30 31  2  0
 31  4  1  0
 30  7  1  0
 20 13  1  0
 29 24  1  0
M  CHG  2   3   1  18   1
M  END
>  <shape_align_shape_tanimoto>  (3) 
0.48857779420087749

>  <shape_align_color_tanimoto>  (3) 
0.14450214513507778

>  <metric>  (3) 
combo

>  <metric_score>  (3) 
0.317

>  <template_pid>  (3) 
1SQA

>  <template_shape_score>  (3) 
0.489

>  <template_color_score>  (3) 
0.145

>  <template_combo_score>  (3) 
0.317

$$$$
