4QO9_shape_pose
     RDKit          3D

 35 39  0  0  0  0  0  0  0  0999 V2000
  -20.5835    8.9206  -14.9867 C   0  0  0  0  0  0  0  0  0  0  0  0
  -21.6577    8.8090  -15.8889 O   0  0  0  0  0  0  0  0  0  0  0  0
  -21.2686    8.1744  -17.0444 C   0  0  1  0  0  0  0  0  0  0  0  0
  -22.0127    6.9187  -17.3254 C   0  0  0  0  0  0  0  0  0  0  0  0
  -21.6599    6.3039  -18.3901 O   0  0  0  0  0  0  0  0  0  0  0  0
  -23.0501    6.4195  -16.4796 N   0  0  0  0  0  0  0  0  0  0  0  0
  -23.5014    7.0453  -15.2679 C   0  0  0  0  0  0  0  0  0  0  0  0
  -24.6326    6.1818  -14.8518 C   0  0  0  0  0  0  0  0  0  0  0  0
  -25.5646    6.1123  -13.8883 N   0  0  0  0  0  0  0  0  0  0  0  0
  -26.3011    5.0509  -14.1045 N   0  0  0  0  0  0  0  0  0  0  0  0
  -25.8563    4.4055  -15.2214 C   0  0  0  0  0  0  0  0  0  0  0  0
  -26.4862    3.2294  -15.6908 N   0  0  0  0  0  0  0  0  0  0  0  0
  -26.0677    2.4283  -16.7663 C   0  0  0  0  0  0  0  0  0  0  0  0
  -25.0384    2.7495  -17.3877 O   0  0  0  0  0  0  0  0  0  0  0  0
  -26.7628    1.2239  -17.2199 C   0  0  0  0  0  0  0  0  0  0  0  0
  -26.1741    0.4963  -18.2347 C   0  0  0  0  0  0  0  0  0  0  0  0
  -26.7921   -0.6578  -18.7279 C   0  0  0  0  0  0  0  0  0  0  0  0
  -28.0019   -1.1059  -18.2211 C   0  0  0  0  0  0  0  0  0  0  0  0
  -28.6202   -2.2905  -18.7359 N   0  0  0  0  0  0  0  0  0  0  0  0
  -29.9224   -2.7474  -18.3419 C   0  0  0  0  0  0  0  0  0  0  0  0
  -30.0254   -4.2625  -18.2995 C   0  0  0  0  0  0  0  0  0  0  0  0
  -29.7042   -4.7467  -19.6220 N   0  0  0  0  0  0  0  0  0  0  0  0
  -30.5722   -4.2815  -20.6610 C   0  0  0  0  0  0  0  0  0  0  0  0
  -28.3311   -4.4663  -19.8940 C   0  0  0  0  0  0  0  0  0  0  0  0
  -27.8856   -3.0641  -19.7049 C   0  0  0  0  0  0  0  0  0  0  0  0
  -28.5584   -0.3527  -17.2086 C   0  0  0  0  0  0  0  0  0  0  0  0
  -27.9628    0.7938  -16.7052 C   0  0  0  0  0  0  0  0  0  0  0  0
  -24.7844    5.1197  -15.7143 C   0  0  0  0  0  0  0  0  0  0  0  0
  -23.7682    5.1981  -16.7786 C   0  0  0  0  0  0  0  0  0  0  0  0
  -21.3340    9.0318  -18.2598 C   0  0  0  0  0  0  0  0  0  0  0  0
  -22.4610    9.8181  -18.4722 C   0  0  0  0  0  0  0  0  0  0  0  0
  -22.6053   10.6347  -19.5692 C   0  0  0  0  0  0  0  0  0  0  0  0
  -21.5659   10.6569  -20.4901 C   0  0  0  0  0  0  0  0  0  0  0  0
  -20.4357    9.8868  -20.3043 C   0  0  0  0  0  0  0  0  0  0  0  0
  -20.3066    9.0725  -19.1979 C   0  0  0  0  0  0  0  0  0  0  0  0
  1  2  1  0
  3  2  1  1
  3  4  1  0
  4  5  2  0
  4  6  1  0
  6  7  1  0
  7  8  1  0
  8  9  1  0
  9 10  1  0
 10 11  2  0
 11 12  1  0
 12 13  1  0
 13 14  2  0
 13 15  1  0
 15 16  2  0
 16 17  1  0
 17 18  2  0
 18 19  1  0
 19 20  1  0
 20 21  1  0
 21 22  1  0
 22 23  1  0
 22 24  1  0
 24 25  1  0
 18 26  1  0
 26 27  2  0
 11 28  1  0
 28 29  1  0
  3 30  1  0
 30 31  2  0
 31 32  1  0
 32 33  2  0
 33 34  1  0
 34 35  2  0
 29  6  1  0
 35 30  1  0
 28  8  2  0
 27 15  1  0
 25 19  1  0
M  CHG  1  22   1
M  END
>  <shape_align_shape_tanimoto>  (1) 
0.61034695736417721

>  <shape_align_color_tanimoto>  (1) 
0.12898474151344042

>  <metric>  (1) 
shape

>  <metric_score>  (1) 
0.610

>  <template_pid>  (1) 
4QO9

>  <template_shape_score>  (1) 
0.610

>  <template_color_score>  (1) 
0.129

>  <template_combo_score>  (1) 
0.370

$$$$
4QO9_color_pose
     RDKit          3D

 35 39  0  0  0  0  0  0  0  0999 V2000
  -18.5658    7.7587  -17.4997 C   0  0  0  0  0  0  0  0  0  0  0  0
  -19.7664    8.4513  -17.4570 O   0  0  0  0  0  0  0  0  0  0  0  0
  -20.8850    7.6096  -17.4679 C   0  0  1  0  0  0  0  0  0  0  0  0
  -21.7519    7.9206  -16.2985 C   0  0  0  0  0  0  0  0  0  0  0  0
  -21.4596    8.8363  -15.4597 O   0  0  0  0  0  0  0  0  0  0  0  0
  -22.9597    7.2085  -16.0526 N   0  0  0  0  0  0  0  0  0  0  0  0
  -23.8047    7.5290  -14.8939 C   0  0  0  0  0  0  0  0  0  0  0  0
  -24.7079    6.3784  -14.7390 C   0  0  0  0  0  0  0  0  0  0  0  0
  -25.6203    5.7833  -13.9633 N   0  0  0  0  0  0  0  0  0  0  0  0
  -26.0556    4.6633  -14.5052 N   0  0  0  0  0  0  0  0  0  0  0  0
  -25.4263    4.4856  -15.6817 C   0  0  0  0  0  0  0  0  0  0  0  0
  -25.6243    3.3856  -16.5731 N   0  0  0  0  0  0  0  0  0  0  0  0
  -26.5466    2.3722  -16.2588 C   0  0  0  0  0  0  0  0  0  0  0  0
  -27.1766    2.5026  -15.1515 O   0  0  0  0  0  0  0  0  0  0  0  0
  -26.8033    1.2206  -17.1162 C   0  0  0  0  0  0  0  0  0  0  0  0
  -26.1557    1.0069  -18.3141 C   0  0  0  0  0  0  0  0  0  0  0  0
  -26.4386   -0.1043  -19.0911 C   0  0  0  0  0  0  0  0  0  0  0  0
  -27.3788   -1.0547  -18.7133 C   0  0  0  0  0  0  0  0  0  0  0  0
  -27.6635   -2.1859  -19.5205 N   0  0  0  0  0  0  0  0  0  0  0  0
  -28.4915   -3.2998  -19.0895 C   0  0  0  0  0  0  0  0  0  0  0  0
  -27.7529   -4.5558  -19.5057 C   0  0  0  0  0  0  0  0  0  0  0  0
  -26.3463   -4.3217  -19.7439 N   0  0  0  0  0  0  0  0  0  0  0  0
  -25.7508   -5.5931  -20.1075 C   0  0  0  0  0  0  0  0  0  0  0  0
  -26.1201   -3.4045  -20.8419 C   0  0  0  0  0  0  0  0  0  0  0  0
  -27.1269   -2.2955  -20.8805 C   0  0  0  0  0  0  0  0  0  0  0  0
  -28.0229   -0.8347  -17.5145 C   0  0  0  0  0  0  0  0  0  0  0  0
  -27.7392    0.2904  -16.7234 C   0  0  0  0  0  0  0  0  0  0  0  0
  -24.5708    5.5572  -15.8490 C   0  0  0  0  0  0  0  0  0  0  0  0
  -23.5645    6.1378  -16.7885 C   0  0  0  0  0  0  0  0  0  0  0  0
  -21.5846    7.9427  -18.7605 C   0  0  0  0  0  0  0  0  0  0  0  0
  -21.7699    9.2482  -19.1660 C   0  0  0  0  0  0  0  0  0  0  0  0
  -22.4093    9.5851  -20.3486 C   0  0  0  0  0  0  0  0  0  0  0  0
  -22.8739    8.5508  -21.1407 C   0  0  0  0  0  0  0  0  0  0  0  0
  -22.7162    7.2229  -20.7844 C   0  0  0  0  0  0  0  0  0  0  0  0
  -22.0706    6.9546  -19.5945 C   0  0  0  0  0  0  0  0  0  0  0  0
  1  2  1  0
  3  2  1  1
  3  4  1  0
  4  5  2  0
  4  6  1  0
  6  7  1  0
  7  8  1  0
  8  9  1  0
  9 10  1  0
 10 11  2  0
 11 12  1  0
 12 13  1  0
 13 14  2  0
 13 15  1  0
 15 16  2  0
 16 17  1  0
 17 18  2  0
 18 19  1  0
 19 20  1  0
 20 21  1  0
 21 22  1  0
 22 23  1  0
 22 24  1  0
 24 25  1  0
 18 26  1  0
 26 27  2  0
 11 28  1  0
 28 29  1  0
  3 30  1  0
 30 31  2  0
 31 32  1  0
 32 33  2  0
 33 34  1  0
 34 35  2  0
 29  6  1  0
 35 30  1  0
 28  8  2  0
 27 15  1  0
 25 19  1  0
M  CHG  1  22   1
M  END
>  <shape_align_shape_tanimoto>  (2) 
0.58356990671337428

>  <shape_align_color_tanimoto>  (2) 
0.16474983893069092

>  <metric>  (2) 
color

>  <metric_score>  (2) 
0.165

>  <template_pid>  (2) 
4QO9

>  <template_shape_score>  (2) 
0.584

>  <template_color_score>  (2) 
0.165

>  <template_combo_score>  (2) 
0.374

$$$$
4QO9_combo_pose
     RDKit          3D

 35 39  0  0  0  0  0  0  0  0999 V2000
  -18.5658    7.7587  -17.4997 C   0  0  0  0  0  0  0  0  0  0  0  0
  -19.7664    8.4513  -17.4570 O   0  0  0  0  0  0  0  0  0  0  0  0
  -20.8850    7.6096  -17.4679 C   0  0  1  0  0  0  0  0  0  0  0  0
  -21.7519    7.9206  -16.2985 C   0  0  0  0  0  0  0  0  0  0  0  0
  -21.4596    8.8363  -15.4597 O   0  0  0  0  0  0  0  0  0  0  0  0
  -22.9597    7.2085  -16.0526 N   0  0  0  0  0  0  0  0  0  0  0  0
  -23.8047    7.5290  -14.8939 C   0  0  0  0  0  0  0  0  0  0  0  0
  -24.7079    6.3784  -14.7390 C   0  0  0  0  0  0  0  0  0  0  0  0
  -25.6203    5.7833  -13.9633 N   0  0  0  0  0  0  0  0  0  0  0  0
  -26.0556    4.6633  -14.5052 N   0  0  0  0  0  0  0  0  0  0  0  0
  -25.4263    4.4856  -15.6817 C   0  0  0  0  0  0  0  0  0  0  0  0
  -25.6243    3.3856  -16.5731 N   0  0  0  0  0  0  0  0  0  0  0  0
  -26.5466    2.3722  -16.2588 C   0  0  0  0  0  0  0  0  0  0  0  0
  -27.1766    2.5026  -15.1515 O   0  0  0  0  0  0  0  0  0  0  0  0
  -26.8033    1.2206  -17.1162 C   0  0  0  0  0  0  0  0  0  0  0  0
  -26.1557    1.0069  -18.3141 C   0  0  0  0  0  0  0  0  0  0  0  0
  -26.4386   -0.1043  -19.0911 C   0  0  0  0  0  0  0  0  0  0  0  0
  -27.3788   -1.0547  -18.7133 C   0  0  0  0  0  0  0  0  0  0  0  0
  -27.6635   -2.1859  -19.5205 N   0  0  0  0  0  0  0  0  0  0  0  0
  -28.4915   -3.2998  -19.0895 C   0  0  0  0  0  0  0  0  0  0  0  0
  -27.7529   -4.5558  -19.5057 C   0  0  0  0  0  0  0  0  0  0  0  0
  -26.3463   -4.3217  -19.7439 N   0  0  0  0  0  0  0  0  0  0  0  0
  -25.7508   -5.5931  -20.1075 C   0  0  0  0  0  0  0  0  0  0  0  0
  -26.1201   -3.4045  -20.8419 C   0  0  0  0  0  0  0  0  0  0  0  0
  -27.1269   -2.2955  -20.8805 C   0  0  0  0  0  0  0  0  0  0  0  0
  -28.0229   -0.8347  -17.5145 C   0  0  0  0  0  0  0  0  0  0  0  0
  -27.7392    0.2904  -16.7234 C   0  0  0  0  0  0  0  0  0  0  0  0
  -24.5708    5.5572  -15.8490 C   0  0  0  0  0  0  0  0  0  0  0  0
  -23.5645    6.1378  -16.7885 C   0  0  0  0  0  0  0  0  0  0  0  0
  -21.5846    7.9427  -18.7605 C   0  0  0  0  0  0  0  0  0  0  0  0
  -21.7699    9.2482  -19.1660 C   0  0  0  0  0  0  0  0  0  0  0  0
  -22.4093    9.5851  -20.3486 C   0  0  0  0  0  0  0  0  0  0  0  0
  -22.8739    8.5508  -21.1407 C   0  0  0  0  0  0  0  0  0  0  0  0
  -22.7162    7.2229  -20.7844 C   0  0  0  0  0  0  0  0  0  0  0  0
  -22.0706    6.9546  -19.5945 C   0  0  0  0  0  0  0  0  0  0  0  0
  1  2  1  0
  3  2  1  1
  3  4  1  0
  4  5  2  0
  4  6  1  0
  6  7  1  0
  7  8  1  0
  8  9  1  0
  9 10  1  0
 10 11  2  0
 11 12  1  0
 12 13  1  0
 13 14  2  0
 13 15  1  0
 15 16  2  0
 16 17  1  0
 17 18  2  0
 18 19  1  0
 19 20  1  0
 20 21  1  0
 21 22  1  0
 22 23  1  0
 22 24  1  0
 24 25  1  0
 18 26  1  0
 26 27  2  0
 11 28  1  0
 28 29  1  0
  3 30  1  0
 30 31  2  0
 31 32  1  0
 32 33  2  0
 33 34  1  0
 34 35  2  0
 29  6  1  0
 35 30  1  0
 28  8  2  0
 27 15  1  0
 25 19  1  0
M  CHG  1  22   1
M  END
>  <shape_align_shape_tanimoto>  (3) 
0.58356990671337428

>  <shape_align_color_tanimoto>  (3) 
0.16474983893069092

>  <metric>  (3) 
combo

>  <metric_score>  (3) 
0.374

>  <template_pid>  (3) 
4QO9

>  <template_shape_score>  (3) 
0.584

>  <template_color_score>  (3) 
0.165

>  <template_combo_score>  (3) 
0.374

$$$$
