4TSZ_shape_pose
     RDKit          3D

 53 54  0  0  0  0  0  0  0  0999 V2000
  -26.3822   12.9416   69.5594 C   0  0  0  0  0  0  0  0  0  0  0  0
  -27.5111   12.6943   68.6059 C   0  0  0  0  0  0  0  0  0  0  0  0
  -28.0765   11.5850   68.4833 O   0  0  0  0  0  0  0  0  0  0  0  0
  -27.9105   13.8303   67.8294 N   0  0  0  0  0  0  0  0  0  0  0  0
  -29.0271   13.7084   66.8429 C   0  0  1  0  0  0  0  0  0  0  0  0
  -30.0806   14.6892   67.2862 C   0  0  0  0  0  0  0  0  0  0  0  0
  -31.3009   14.7399   66.4326 C   0  0  0  0  0  0  0  0  0  0  0  0
  -32.3038   15.7196   66.9791 C   0  0  0  0  0  0  0  0  0  0  0  0
  -33.5522   15.8630   66.2766 N   0  0  0  0  0  0  0  0  0  0  0  0
  -32.0547   16.3960   68.0245 O   0  0  0  0  0  0  0  0  0  0  0  0
  -28.3951   14.0828   65.5621 C   0  0  0  0  0  0  0  0  0  0  0  0
  -27.2023   14.5407   65.6648 O   0  0  0  0  0  0  0  0  0  0  0  0
  -28.9679   13.9799   64.2897 N   0  0  0  0  0  0  0  0  0  0  0  0
  -28.2788   14.3832   63.0400 C   0  0  1  0  0  0  0  0  0  0  0  0
  -27.9952   13.2251   62.1780 C   0  0  0  0  0  0  0  0  0  0  0  0
  -29.1404   12.3994   61.7128 C   0  0  0  0  0  0  0  0  0  0  0  0
  -30.1615   13.0798   60.8757 C   0  0  0  0  0  0  0  0  0  0  0  0
  -29.6885   13.3430   59.4751 C   0  0  0  0  0  0  0  0  0  0  0  0
  -29.3038   12.0433   58.7989 C   0  0  0  0  0  0  0  0  0  0  0  0
  -28.2536   11.3080   59.6100 C   0  0  0  0  0  0  0  0  0  0  0  0
  -28.6589   11.1485   61.0376 C   0  0  0  0  0  0  0  0  0  0  0  0
  -28.8599   15.5900   62.5073 C   0  0  0  0  0  0  0  0  0  0  0  0
  -29.7864   16.1443   63.2142 O   0  0  0  0  0  0  0  0  0  0  0  0
  -28.5660   16.2824   61.3032 N   0  0  0  0  0  0  0  0  0  0  0  0
  -29.3279   17.4916   61.0669 C   0  0  1  0  0  0  0  0  0  0  0  0
  -30.7763   17.3072   60.8317 C   0  0  0  0  0  0  0  0  0  0  0  0
  -31.0769   16.4908   59.6120 C   0  0  0  0  0  0  0  0  0  0  0  0
  -32.1739   15.9112   59.4285 O   0  0  0  0  0  0  0  0  0  0  0  0
  -30.0265   16.4281   58.6788 O   0  0  0  0  0  0  0  0  0  0  0  0
  -29.1020   18.4094   62.2153 C   0  0  0  0  0  0  0  0  0  0  0  0
  -29.8590   19.3743   62.4889 O   0  0  0  0  0  0  0  0  0  0  0  0
  -27.9711   18.2507   63.1025 N   0  0  0  0  0  0  0  0  0  0  0  0
  -27.8556   19.1694   64.1788 C   0  0  1  0  0  0  0  0  0  0  0  0
  -27.1050   18.7686   65.3811 C   0  0  0  0  0  0  0  0  0  0  0  0
  -25.6682   18.4547   65.2649 C   0  0  0  0  0  0  0  0  0  0  0  0
  -25.2639   17.3353   64.3551 C   0  0  0  0  0  0  0  0  0  0  0  0
  -25.2127   18.0078   66.6709 C   0  0  0  0  0  0  0  0  0  0  0  0
  -27.2942   20.4633   63.5926 C   0  0  0  0  0  0  0  0  0  0  0  0
  -27.1388   20.4556   62.3238 O   0  0  0  0  0  0  0  0  0  0  0  0
  -26.9818   21.5592   64.4076 N   0  0  0  0  0  0  0  0  0  0  0  0
  -26.4585   22.7618   63.7834 C   0  0  1  0  0  0  0  0  0  0  0  0
  -27.2016   23.9781   64.2481 C   0  0  0  0  0  0  0  0  0  0  0  0
  -28.6476   23.9146   63.9475 C   0  0  0  0  0  0  0  0  0  0  0  0
  -29.4551   23.3384   64.9353 C   0  0  0  0  0  0  0  0  0  0  0  0
  -30.8171   23.2173   64.7896 C   0  0  0  0  0  0  0  0  0  0  0  0
  -31.3853   23.6850   63.6244 C   0  0  0  0  0  0  0  0  0  0  0  0
  -33.1354   23.5061   63.4853 Cl  0  0  0  0  0  0  0  0  0  0  0  0
  -30.6160   24.2513   62.6459 C   0  0  0  0  0  0  0  0  0  0  0  0
  -31.3868   24.8352   61.1717 Cl  0  0  0  0  0  0  0  0  0  0  0  0
  -29.2305   24.3752   62.7930 C   0  0  0  0  0  0  0  0  0  0  0  0
  -24.9917   22.8867   64.0347 C   0  0  0  0  0  0  0  0  0  0  0  0
  -24.3936   22.2602   64.9459 O   0  0  0  0  0  0  0  0  0  0  0  0
  -24.2842   23.7595   63.1867 O   0  0  0  0  0  0  0  0  0  0  0  0
  1  2  1  0
  2  3  2  0
  2  4  1  0
  4  5  1  0
  5  6  1  1
  6  7  1  0
  7  8  1  0
  8  9  1  0
  8 10  2  0
  5 11  1  0
 11 12  2  0
 11 13  1  0
 13 14  1  0
 14 15  1  6
 15 16  1  0
 16 17  1  0
 17 18  1  0
 18 19  1  0
 19 20  1  0
 20 21  1  0
 14 22  1  0
 22 23  2  0
 22 24  1  0
 24 25  1  0
 25 26  1  1
 26 27  1  0
 27 28  2  0
 27 29  1  0
 25 30  1  0
 30 31  2  0
 30 32  1  0
 32 33  1  0
 33 34  1  1
 34 35  1  0
 35 36  1  0
 35 37  1  0
 33 38  1  0
 38 39  2  0
 38 40  1  0
 40 41  1  0
 41 42  1  1
 42 43  1  0
 43 44  2  0
 44 45  1  0
 45 46  2  0
 46 47  1  0
 46 48  1  0
 48 49  1  0
 48 50  2  0
 41 51  1  0
 51 52  2  0
 51 53  1  0
 21 16  1  0
 50 43  1  0
M  CHG  2  29  -1  53  -1
M  END
>  <shape_align_shape_tanimoto>  (1) 
0.27204797468287906

>  <shape_align_color_tanimoto>  (1) 
0.0064987087428530141

>  <metric>  (1) 
shape

>  <metric_score>  (1) 
0.272

>  <template_pid>  (1) 
4TSZ

>  <template_shape_score>  (1) 
0.272

>  <template_color_score>  (1) 
0.006

>  <template_combo_score>  (1) 
0.139

$$$$
4TSZ_color_pose
     RDKit          3D

 53 54  0  0  0  0  0  0  0  0999 V2000
  -30.4170   21.2986   65.5853 C   0  0  0  0  0  0  0  0  0  0  0  0
  -29.0937   21.0076   64.9767 C   0  0  0  0  0  0  0  0  0  0  0  0
  -28.5197   21.9564   64.3727 O   0  0  0  0  0  0  0  0  0  0  0  0
  -28.4870   19.6995   65.0689 N   0  0  0  0  0  0  0  0  0  0  0  0
  -27.2218   19.5180   64.4563 C   0  0  1  0  0  0  0  0  0  0  0  0
  -26.0201   19.3564   65.2928 C   0  0  0  0  0  0  0  0  0  0  0  0
  -25.9047   18.2601   66.2533 C   0  0  0  0  0  0  0  0  0  0  0  0
  -26.8261   18.1758   67.3722 C   0  0  0  0  0  0  0  0  0  0  0  0
  -26.8706   16.9311   68.1075 N   0  0  0  0  0  0  0  0  0  0  0  0
  -27.6008   19.0686   67.7878 O   0  0  0  0  0  0  0  0  0  0  0  0
  -27.3382   18.4506   63.3990 C   0  0  0  0  0  0  0  0  0  0  0  0
  -26.2798   18.1778   62.7766 O   0  0  0  0  0  0  0  0  0  0  0  0
  -28.5848   17.8178   63.1538 N   0  0  0  0  0  0  0  0  0  0  0  0
  -28.7330   16.7671   62.1240 C   0  0  1  0  0  0  0  0  0  0  0  0
  -28.9976   15.4540   62.7942 C   0  0  0  0  0  0  0  0  0  0  0  0
  -29.1730   14.2817   61.8935 C   0  0  0  0  0  0  0  0  0  0  0  0
  -27.9383   14.0583   61.0496 C   0  0  0  0  0  0  0  0  0  0  0  0
  -28.1995   13.0090   59.9697 C   0  0  0  0  0  0  0  0  0  0  0  0
  -29.2962   12.1137   60.4663 C   0  0  0  0  0  0  0  0  0  0  0  0
  -28.9930   11.7850   61.9130 C   0  0  0  0  0  0  0  0  0  0  0  0
  -29.3101   13.0030   62.7415 C   0  0  0  0  0  0  0  0  0  0  0  0
  -29.7551   17.1243   61.1427 C   0  0  0  0  0  0  0  0  0  0  0  0
  -30.1159   16.4175   60.1661 O   0  0  0  0  0  0  0  0  0  0  0  0
  -30.4167   18.3801   61.2844 N   0  0  0  0  0  0  0  0  0  0  0  0
  -31.4622   18.8185   60.3582 C   0  0  1  0  0  0  0  0  0  0  0  0
  -32.6260   19.2926   61.1697 C   0  0  0  0  0  0  0  0  0  0  0  0
  -33.7778   19.7522   60.3758 C   0  0  0  0  0  0  0  0  0  0  0  0
  -34.7436   20.2921   61.0135 O   0  0  0  0  0  0  0  0  0  0  0  0
  -33.9192   19.6577   59.0165 O   0  0  0  0  0  0  0  0  0  0  0  0
  -30.8693   19.9740   59.5995 C   0  0  0  0  0  0  0  0  0  0  0  0
  -31.5408   20.6191   58.7529 O   0  0  0  0  0  0  0  0  0  0  0  0
  -29.5249   20.3990   59.7929 N   0  0  0  0  0  0  0  0  0  0  0  0
  -28.9588   21.5325   59.0432 C   0  0  1  0  0  0  0  0  0  0  0  0
  -28.4838   22.5873   59.9583 C   0  0  0  0  0  0  0  0  0  0  0  0
  -27.8725   23.8175   59.4044 C   0  0  0  0  0  0  0  0  0  0  0  0
  -28.8204   24.5587   58.4587 C   0  0  0  0  0  0  0  0  0  0  0  0
  -26.5050   23.7363   58.8554 C   0  0  0  0  0  0  0  0  0  0  0  0
  -28.0591   21.0122   58.0250 C   0  0  0  0  0  0  0  0  0  0  0  0
  -27.4808   21.6917   57.1291 O   0  0  0  0  0  0  0  0  0  0  0  0
  -27.7658   19.6041   57.9862 N   0  0  0  0  0  0  0  0  0  0  0  0
  -26.8860   19.0195   56.9949 C   0  0  1  0  0  0  0  0  0  0  0  0
  -25.7033   18.3740   57.6949 C   0  0  0  0  0  0  0  0  0  0  0  0
  -24.9211   19.3605   58.4753 C   0  0  0  0  0  0  0  0  0  0  0  0
  -23.8651   19.9786   57.8165 C   0  0  0  0  0  0  0  0  0  0  0  0
  -23.0580   20.9179   58.4272 C   0  0  0  0  0  0  0  0  0  0  0  0
  -23.3296   21.2336   59.7294 C   0  0  0  0  0  0  0  0  0  0  0  0
  -22.3233   22.4181   60.5248 Cl  0  0  0  0  0  0  0  0  0  0  0  0
  -24.3740   20.6217   60.3790 C   0  0  0  0  0  0  0  0  0  0  0  0
  -24.6683   21.0701   62.0450 Cl  0  0  0  0  0  0  0  0  0  0  0  0
  -25.1779   19.6912   59.7831 C   0  0  0  0  0  0  0  0  0  0  0  0
  -27.5993   17.9661   56.2357 C   0  0  0  0  0  0  0  0  0  0  0  0
  -27.0888   17.5159   55.1621 O   0  0  0  0  0  0  0  0  0  0  0  0
  -28.8053   17.4256   56.6175 O   0  0  0  0  0  0  0  0  0  0  0  0
  1  2  1  0
  2  3  2  0
  2  4  1  0
  4  5  1  0
  5  6  1  1
  6  7  1  0
  7  8  1  0
  8  9  1  0
  8 10  2  0
  5 11  1  0
 11 12  2  0
 11 13  1  0
 13 14  1  0
 14 15  1  1
 15 16  1  0
 16 17  1  0
 17 18  1  0
 18 19  1  0
 19 20  1  0
 20 21  1  0
 14 22  1  0
 22 23  2  0
 22 24  1  0
 24 25  1  0
 25 26  1  1
 26 27  1  0
 27 28  2  0
 27 29  1  0
 25 30  1  0
 30 31  2  0
 30 32  1  0
 32 33  1  0
 33 34  1  1
 34 35  1  0
 35 36  1  0
 35 37  1  0
 33 38  1  0
 38 39  2  0
 38 40  1  0
 40 41  1  0
 41 42  1  1
 42 43  1  0
 43 44  2  0
 44 45  1  0
 45 46  2  0
 46 47  1  0
 46 48  1  0
 48 49  1  0
 48 50  2  0
 41 51  1  0
 51 52  2  0
 51 53  1  0
 21 16  1  0
 50 43  1  0
M  CHG  2  29  -1  53  -1
M  END
>  <shape_align_shape_tanimoto>  (2) 
0.24017834340572514

>  <shape_align_color_tanimoto>  (2) 
0.077810906333387872

>  <metric>  (2) 
color

>  <metric_score>  (2) 
0.078

>  <template_pid>  (2) 
4TSZ

>  <template_shape_score>  (2) 
0.240

>  <template_color_score>  (2) 
0.078

>  <template_combo_score>  (2) 
0.159

$$$$
4TSZ_combo_pose
     RDKit          3D

 53 54  0  0  0  0  0  0  0  0999 V2000
  -38.5294   13.4346   65.4772 C   0  0  0  0  0  0  0  0  0  0  0  0
  -37.2867   14.2540   65.2602 C   0  0  0  0  0  0  0  0  0  0  0  0
  -36.9259   15.0570   66.1695 O   0  0  0  0  0  0  0  0  0  0  0  0
  -36.5596   14.0994   64.0404 N   0  0  0  0  0  0  0  0  0  0  0  0
  -35.3454   14.9223   63.8568 C   0  0  1  0  0  0  0  0  0  0  0  0
  -34.1208   14.0141   63.9281 C   0  0  0  0  0  0  0  0  0  0  0  0
  -34.1924   12.9401   62.8362 C   0  0  0  0  0  0  0  0  0  0  0  0
  -32.9784   12.1051   62.9826 C   0  0  0  0  0  0  0  0  0  0  0  0
  -32.8223   10.9728   62.1411 N   0  0  0  0  0  0  0  0  0  0  0  0
  -32.0814   12.3730   63.8315 O   0  0  0  0  0  0  0  0  0  0  0  0
  -35.4647   15.6416   62.5838 C   0  0  0  0  0  0  0  0  0  0  0  0
  -36.4935   15.3885   61.8743 O   0  0  0  0  0  0  0  0  0  0  0  0
  -34.4685   16.5607   62.2039 N   0  0  0  0  0  0  0  0  0  0  0  0
  -34.5705   17.3137   60.8965 C   0  0  1  0  0  0  0  0  0  0  0  0
  -34.7506   18.7363   61.1018 C   0  0  0  0  0  0  0  0  0  0  0  0
  -35.0022   19.7708   60.0905 C   0  0  0  0  0  0  0  0  0  0  0  0
  -36.2993   19.5411   59.2955 C   0  0  0  0  0  0  0  0  0  0  0  0
  -36.0841   18.9042   57.9506 C   0  0  0  0  0  0  0  0  0  0  0  0
  -34.9591   19.4480   57.1716 C   0  0  0  0  0  0  0  0  0  0  0  0
  -34.1624   20.5378   57.8066 C   0  0  0  0  0  0  0  0  0  0  0  0
  -33.9979   20.4637   59.3008 C   0  0  0  0  0  0  0  0  0  0  0  0
  -33.2619   16.8798   60.3490 C   0  0  0  0  0  0  0  0  0  0  0  0
  -32.7240   15.9232   61.0510 O   0  0  0  0  0  0  0  0  0  0  0  0
  -32.5561   17.3157   59.2665 N   0  0  0  0  0  0  0  0  0  0  0  0
  -31.2333   16.8079   58.8308 C   0  0  1  0  0  0  0  0  0  0  0  0
  -31.0647   16.9208   57.3779 C   0  0  0  0  0  0  0  0  0  0  0  0
  -29.8145   16.4231   56.7877 C   0  0  0  0  0  0  0  0  0  0  0  0
  -28.8856   15.8356   57.3690 O   0  0  0  0  0  0  0  0  0  0  0  0
  -29.6531   16.6386   55.4025 O   0  0  0  0  0  0  0  0  0  0  0  0
  -30.1511   17.4243   59.6599 C   0  0  0  0  0  0  0  0  0  0  0  0
  -28.9310   17.3808   59.3603 O   0  0  0  0  0  0  0  0  0  0  0  0
  -30.4680   18.1027   60.8674 N   0  0  0  0  0  0  0  0  0  0  0  0
  -29.4474   18.7220   61.7338 C   0  0  1  0  0  0  0  0  0  0  0  0
  -29.9994   19.8009   62.5694 C   0  0  0  0  0  0  0  0  0  0  0  0
  -29.1185   20.5329   63.5054 C   0  0  0  0  0  0  0  0  0  0  0  0
  -29.9516   21.6142   64.2334 C   0  0  0  0  0  0  0  0  0  0  0  0
  -27.9343   21.2198   62.9204 C   0  0  0  0  0  0  0  0  0  0  0  0
  -28.7808   17.6962   62.5868 C   0  0  0  0  0  0  0  0  0  0  0  0
  -27.9944   17.9928   63.5344 O   0  0  0  0  0  0  0  0  0  0  0  0
  -28.9694   16.2840   62.4004 N   0  0  0  0  0  0  0  0  0  0  0  0
  -28.2504   15.4361   63.3306 C   0  0  1  0  0  0  0  0  0  0  0  0
  -28.9536   14.1239   63.4703 C   0  0  0  0  0  0  0  0  0  0  0  0
  -29.0470   13.3427   62.2174 C   0  0  0  0  0  0  0  0  0  0  0  0
  -27.9959   12.4682   61.9167 C   0  0  0  0  0  0  0  0  0  0  0  0
  -28.0311   11.7170   60.7511 C   0  0  0  0  0  0  0  0  0  0  0  0
  -29.0934   11.8006   59.8515 C   0  0  0  0  0  0  0  0  0  0  0  0
  -29.0704   10.8270   58.4002 Cl  0  0  0  0  0  0  0  0  0  0  0  0
  -30.1275   12.6681   60.1595 C   0  0  0  0  0  0  0  0  0  0  0  0
  -31.4516   12.7582   59.0135 Cl  0  0  0  0  0  0  0  0  0  0  0  0
  -30.0863   13.4125   61.3218 C   0  0  0  0  0  0  0  0  0  0  0  0
  -26.8721   15.1485   62.7472 C   0  0  0  0  0  0  0  0  0  0  0  0
  -25.9684   14.6447   63.4972 O   0  0  0  0  0  0  0  0  0  0  0  0
  -26.6208   15.4335   61.4270 O   0  0  0  0  0  0  0  0  0  0  0  0
  1  2  1  0
  2  3  2  0
  2  4  1  0
  4  5  1  0
  5  6  1  6
  6  7  1  0
  7  8  1  0
  8  9  1  0
  8 10  2  0
  5 11  1  0
 11 12  2  0
 11 13  1  0
 13 14  1  0
 14 15  1  1
 15 16  1  0
 16 17  1  0
 17 18  1  0
 18 19  1  0
 19 20  1  0
 20 21  1  0
 14 22  1  0
 22 23  2  0
 22 24  1  0
 24 25  1  0
 25 26  1  6
 26 27  1  0
 27 28  2  0
 27 29  1  0
 25 30  1  0
 30 31  2  0
 30 32  1  0
 32 33  1  0
 33 34  1  1
 34 35  1  0
 35 36  1  0
 35 37  1  0
 33 38  1  0
 38 39  2  0
 38 40  1  0
 40 41  1  0
 41 42  1  6
 42 43  1  0
 43 44  2  0
 44 45  1  0
 45 46  2  0
 46 47  1  0
 46 48  1  0
 48 49  1  0
 48 50  2  0
 41 51  1  0
 51 52  2  0
 51 53  1  0
 21 16  1  0
 50 43  1  0
M  CHG  2  29  -1  53  -1
M  END
>  <shape_align_shape_tanimoto>  (3) 
0.2609320334135487

>  <shape_align_color_tanimoto>  (3) 
0.05830424448582542

>  <metric>  (3) 
combo

>  <metric_score>  (3) 
0.160

>  <template_pid>  (3) 
4TSZ

>  <template_shape_score>  (3) 
0.261

>  <template_color_score>  (3) 
0.058

>  <template_combo_score>  (3) 
0.160

$$$$
