5L4M_shape_pose
     RDKit          3D

 14 14  0  0  0  0  0  0  0  0999 V2000
    2.5595    7.7031   -0.2039 O   0  0  0  0  0  0  0  0  0  0  0  0
    3.0006    7.8700    0.9790 C   0  0  0  0  0  0  0  0  0  0  0  0
    3.3332    6.7385    1.6786 O   0  0  0  0  0  0  0  0  0  0  0  0
    3.1421    9.2094    1.5545 C   0  0  0  0  0  0  0  0  0  0  0  0
    2.7299   10.2018    0.6247 O   0  0  0  0  0  0  0  0  0  0  0  0
    3.3915   10.2882   -0.5905 C   0  0  0  0  0  0  0  0  0  0  0  0
    4.4028    9.4940   -0.9547 N   0  0  0  0  0  0  0  0  0  0  0  0
    5.0249    9.5922   -2.1247 C   0  0  0  0  0  0  0  0  0  0  0  0
    6.3274    8.5076   -2.4942 Cl  0  0  0  0  0  0  0  0  0  0  0  0
    4.6439   10.5449   -3.0411 C   0  0  0  0  0  0  0  0  0  0  0  0
    5.4926   10.6267   -4.5534 Cl  0  0  0  0  0  0  0  0  0  0  0  0
    3.6052   11.3844   -2.7054 C   0  0  0  0  0  0  0  0  0  0  0  0
    2.9784   11.2525   -1.4734 C   0  0  0  0  0  0  0  0  0  0  0  0
    1.6569   12.3371   -1.0731 Cl  0  0  0  0  0  0  0  0  0  0  0  0
  1  2  2  0
  2  3  1  0
  2  4  1  0
  4  5  1  0
  5  6  1  0
  6  7  2  0
  7  8  1  0
  8  9  1  0
  8 10  2  0
 10 11  1  0
 10 12  1  0
 12 13  2  0
 13 14  1  0
 13  6  1  0
M  CHG  1   3  -1
M  END
>  <shape_align_shape_tanimoto>  (1) 
0.16667311149092268

>  <shape_align_color_tanimoto>  (1) 
0.019768160331474272

>  <metric>  (1) 
shape

>  <metric_score>  (1) 
0.167

>  <template_pid>  (1) 
5L4M

>  <template_shape_score>  (1) 
0.167

>  <template_color_score>  (1) 
0.020

>  <template_combo_score>  (1) 
0.093

$$$$
5L4M_color_pose
     RDKit          3D

 14 14  0  0  0  0  0  0  0  0999 V2000
    0.5747   14.1562    0.1053 O   0  0  0  0  0  0  0  0  0  0  0  0
    1.1056   13.2127   -0.5359 C   0  0  0  0  0  0  0  0  0  0  0  0
    0.3820   12.0225   -0.6461 O   0  0  0  0  0  0  0  0  0  0  0  0
    2.4493   13.3190   -1.1676 C   0  0  0  0  0  0  0  0  0  0  0  0
    2.8177   12.1180   -1.8297 O   0  0  0  0  0  0  0  0  0  0  0  0
    2.9050   10.9506   -1.0775 C   0  0  0  0  0  0  0  0  0  0  0  0
    2.6551   10.9182    0.2432 N   0  0  0  0  0  0  0  0  0  0  0  0
    2.7430    9.7819    0.9600 C   0  0  0  0  0  0  0  0  0  0  0  0
    2.3854    9.8970    2.6843 Cl  0  0  0  0  0  0  0  0  0  0  0  0
    3.0953    8.5771    0.3850 C   0  0  0  0  0  0  0  0  0  0  0  0
    3.1973    7.1154    1.3642 Cl  0  0  0  0  0  0  0  0  0  0  0  0
    3.3599    8.5673   -0.9687 C   0  0  0  0  0  0  0  0  0  0  0  0
    3.2601    9.7502   -1.6719 C   0  0  0  0  0  0  0  0  0  0  0  0
    3.6025    9.6990   -3.3835 Cl  0  0  0  0  0  0  0  0  0  0  0  0
  1  2  2  0
  2  3  1  0
  2  4  1  0
  4  5  1  0
  5  6  1  0
  6  7  2  0
  7  8  1  0
  8  9  1  0
  8 10  2  0
 10 11  1  0
 10 12  1  0
 12 13  2  0
 13 14  1  0
 13  6  1  0
M  CHG  1   3  -1
M  END
>  <shape_align_shape_tanimoto>  (2) 
0.1456121440572615

>  <shape_align_color_tanimoto>  (2) 
0.035638566804236688

>  <metric>  (2) 
color

>  <metric_score>  (2) 
0.036

>  <template_pid>  (2) 
5L4M

>  <template_shape_score>  (2) 
0.146

>  <template_color_score>  (2) 
0.036

>  <template_combo_score>  (2) 
0.091

$$$$
5L4M_combo_pose
     RDKit          3D

 14 14  0  0  0  0  0  0  0  0999 V2000
    2.5595    7.7031   -0.2039 O   0  0  0  0  0  0  0  0  0  0  0  0
    3.0006    7.8700    0.9790 C   0  0  0  0  0  0  0  0  0  0  0  0
    3.3332    6.7385    1.6786 O   0  0  0  0  0  0  0  0  0  0  0  0
    3.1421    9.2094    1.5545 C   0  0  0  0  0  0  0  0  0  0  0  0
    2.7299   10.2018    0.6247 O   0  0  0  0  0  0  0  0  0  0  0  0
    3.3915   10.2882   -0.5905 C   0  0  0  0  0  0  0  0  0  0  0  0
    4.4028    9.4940   -0.9547 N   0  0  0  0  0  0  0  0  0  0  0  0
    5.0249    9.5922   -2.1247 C   0  0  0  0  0  0  0  0  0  0  0  0
    6.3274    8.5076   -2.4942 Cl  0  0  0  0  0  0  0  0  0  0  0  0
    4.6439   10.5449   -3.0411 C   0  0  0  0  0  0  0  0  0  0  0  0
    5.4926   10.6267   -4.5534 Cl  0  0  0  0  0  0  0  0  0  0  0  0
    3.6052   11.3844   -2.7054 C   0  0  0  0  0  0  0  0  0  0  0  0
    2.9784   11.2525   -1.4734 C   0  0  0  0  0  0  0  0  0  0  0  0
    1.6569   12.3371   -1.0731 Cl  0  0  0  0  0  0  0  0  0  0  0  0
  1  2  2  0
  2  3  1  0
  2  4  1  0
  4  5  1  0
  5  6  1  0
  6  7  2  0
  7  8  1  0
  8  9  1  0
  8 10  2  0
 10 11  1  0
 10 12  1  0
 12 13  2  0
 13 14  1  0
 13  6  1  0
M  CHG  1   3  -1
M  END
>  <shape_align_shape_tanimoto>  (3) 
0.16667311149092268

>  <shape_align_color_tanimoto>  (3) 
0.019768160331474272

>  <metric>  (3) 
combo

>  <metric_score>  (3) 
0.093

>  <template_pid>  (3) 
5L4M

>  <template_shape_score>  (3) 
0.167

>  <template_color_score>  (3) 
0.020

>  <template_combo_score>  (3) 
0.093

$$$$
