5CZB_shape_pose
     RDKit          3D

 38 42  0  0  0  0  0  0  0  0999 V2000
  -28.9895   -2.5357   26.5057 C   0  0  0  0  0  0  0  0  0  0  0  0
  -27.6940   -2.9954   26.4132 O   0  0  0  0  0  0  0  0  0  0  0  0
  -27.5088   -4.5705   27.0042 P   0  0  1  0  0  5  0  0  0  0  0  0
  -28.6885   -5.3602   26.4486 O   0  0  0  0  0  0  0  0  0  0  0  0
  -26.0666   -5.2266   26.2907 N   0  0  0  0  0  0  0  0  0  0  0  0
  -25.3518   -6.2132   26.9895 C   0  0  0  0  0  0  0  0  0  0  0  0
  -25.7082   -6.7048   28.2060 N   0  0  0  0  0  0  0  0  0  0  0  0
  -24.8303   -7.6277   28.6046 N   0  0  0  0  0  0  0  0  0  0  0  0
  -24.8579   -8.3740   29.8258 C   0  0  0  0  0  0  0  0  0  0  0  0
  -24.6501   -9.7571   29.8226 C   0  0  0  0  0  0  0  0  0  0  0  0
  -24.6834  -10.4509   31.0246 C   0  0  0  0  0  0  0  0  0  0  0  0
  -24.9202   -9.7766   32.2111 C   0  0  0  0  0  0  0  0  0  0  0  0
  -24.9652  -10.4618   33.5044 C   0  0  0  0  0  0  0  0  0  0  0  0
  -24.7837  -11.8192   33.6985 C   0  0  0  0  0  0  0  0  0  0  0  0
  -24.9014  -12.0666   35.0528 C   0  0  0  0  0  0  0  0  0  0  0  0
  -24.8197  -13.1816   35.8020 N   0  0  0  0  0  0  0  0  0  0  0  0
  -24.9779  -13.1545   37.1499 C   0  0  0  0  0  0  0  0  0  0  0  0
  -24.8845  -14.3882   37.9524 C   0  0  0  0  0  0  0  0  0  0  0  0
  -25.2313  -11.9293   37.7587 C   0  0  0  0  0  0  0  0  0  0  0  0
  -25.3164  -10.7755   36.9883 C   0  0  0  0  0  0  0  0  0  0  0  0
  -25.5744   -9.5063   37.5791 N   0  0  0  0  0  0  0  0  0  0  0  0
  -25.1481  -10.8813   35.6551 N   0  0  0  0  0  0  0  0  0  0  0  0
  -25.1847   -9.9268   34.7217 N   0  0  0  0  0  0  0  0  0  0  0  0
  -25.1282   -8.3925   32.2140 C   0  0  0  0  0  0  0  0  0  0  0  0
  -25.0945   -7.6976   31.0079 C   0  0  0  0  0  0  0  0  0  0  0  0
  -23.8834   -7.7550   27.6536 C   0  0  0  0  0  0  0  0  0  0  0  0
  -24.2066   -6.8734   26.6447 C   0  0  0  0  0  0  0  0  0  0  0  0
  -23.4386   -6.6946   25.4242 C   0  0  0  0  0  0  0  0  0  0  0  0
  -23.7853   -5.8722   24.5381 O   0  0  0  0  0  0  0  0  0  0  0  0
  -22.2847   -7.4246   25.1797 O   0  0  0  0  0  0  0  0  0  0  0  0
  -27.5281   -4.6291   28.7685 C   0  0  0  0  0  0  0  0  0  0  0  0
  -26.7797   -3.7194   29.4994 C   0  0  0  0  0  0  0  0  0  0  0  0
  -26.7533   -3.7140   30.8805 C   0  0  0  0  0  0  0  0  0  0  0  0
  -27.4812   -4.6268   31.5905 C   0  0  0  0  0  0  0  0  0  0  0  0
  -27.5114   -4.6934   33.0726 C   0  0  0  0  0  0  0  0  0  0  0  0
  -28.2338   -5.5423   30.8828 C   0  0  0  0  0  0  0  0  0  0  0  0
  -28.2618   -5.5493   29.4896 C   0  0  0  0  0  0  0  0  0  0  0  0
  -29.0805   -6.5456   28.7432 C   0  0  0  0  0  0  0  0  0  0  0  0
  1  2  1  0
  2  3  1  0
  3  4  2  0
  3  5  1  6
  5  6  1  0
  6  7  2  0
  7  8  1  0
  8  9  1  0
  9 10  2  0
 10 11  1  0
 11 12  2  0
 12 13  1  0
 13 14  1  0
 14 15  2  0
 15 16  1  0
 16 17  2  0
 17 18  1  0
 17 19  1  0
 19 20  2  0
 20 21  1  0
 20 22  1  0
 22 23  1  0
 12 24  1  0
 24 25  2  0
  8 26  1  0
 26 27  2  0
 27 28  1  0
 28 29  2  0
 28 30  1  0
  3 31  1  0
 31 32  2  0
 32 33  1  0
 33 34  2  0
 34 35  1  0
 34 36  1  0
 36 37  2  0
 37 38  1  0
 27  6  1  0
 37 31  1  0
 25  9  1  0
 23 13  2  0
 22 15  1  0
M  CHG  1  30  -1
M  END
>  <shape_align_shape_tanimoto>  (1) 
0.50162803368677733

>  <shape_align_color_tanimoto>  (1) 
0.031116192443665446

>  <metric>  (1) 
shape

>  <metric_score>  (1) 
0.502

>  <template_pid>  (1) 
5CZB

>  <template_shape_score>  (1) 
0.502

>  <template_color_score>  (1) 
0.031

>  <template_combo_score>  (1) 
0.266

$$$$
5CZB_color_pose
     RDKit          3D

 38 42  0  0  0  0  0  0  0  0999 V2000
  -22.1731   -7.5362   34.5275 C   0  0  0  0  0  0  0  0  0  0  0  0
  -23.3196   -6.7759   34.5105 O   0  0  0  0  0  0  0  0  0  0  0  0
  -24.6731   -7.6666   35.0120 P   0  0  1  0  0  5  0  0  0  0  0  0
  -24.4902   -7.9011   36.4940 O   0  0  0  0  0  0  0  0  0  0  0  0
  -26.1332   -6.7468   34.7729 N   0  0  0  0  0  0  0  0  0  0  0  0
  -26.4160   -6.2892   33.4578 C   0  0  0  0  0  0  0  0  0  0  0  0
  -25.6450   -6.5091   32.3769 N   0  0  0  0  0  0  0  0  0  0  0  0
  -26.1809   -5.9540   31.3016 N   0  0  0  0  0  0  0  0  0  0  0  0
  -25.5636   -6.0380   30.0180 C   0  0  0  0  0  0  0  0  0  0  0  0
  -24.9215   -4.9708   29.4232 C   0  0  0  0  0  0  0  0  0  0  0  0
  -24.3475   -5.1549   28.1619 C   0  0  0  0  0  0  0  0  0  0  0  0
  -24.4432   -6.3934   27.5586 C   0  0  0  0  0  0  0  0  0  0  0  0
  -23.8404   -6.5752   26.2415 C   0  0  0  0  0  0  0  0  0  0  0  0
  -23.8283   -7.7276   25.4787 C   0  0  0  0  0  0  0  0  0  0  0  0
  -23.1554   -7.4602   24.3099 C   0  0  0  0  0  0  0  0  0  0  0  0
  -22.8792   -8.2434   23.2579 N   0  0  0  0  0  0  0  0  0  0  0  0
  -22.1968   -7.7878   22.1909 C   0  0  0  0  0  0  0  0  0  0  0  0
  -21.9315   -8.7085   21.0724 C   0  0  0  0  0  0  0  0  0  0  0  0
  -21.7869   -6.4702   22.2191 C   0  0  0  0  0  0  0  0  0  0  0  0
  -22.0853   -5.7028   23.3052 C   0  0  0  0  0  0  0  0  0  0  0  0
  -21.6607   -4.3443   23.3304 N   0  0  0  0  0  0  0  0  0  0  0  0
  -22.7725   -6.1747   24.3713 N   0  0  0  0  0  0  0  0  0  0  0  0
  -23.1790   -5.6589   25.5115 N   0  0  0  0  0  0  0  0  0  0  0  0
  -25.0842   -7.4691   28.1458 C   0  0  0  0  0  0  0  0  0  0  0  0
  -25.6500   -7.2833   29.3919 C   0  0  0  0  0  0  0  0  0  0  0  0
  -27.3334   -5.3452   31.6448 C   0  0  0  0  0  0  0  0  0  0  0  0
  -27.4848   -5.5528   32.9962 C   0  0  0  0  0  0  0  0  0  0  0  0
  -28.5990   -5.0682   33.8002 C   0  0  0  0  0  0  0  0  0  0  0  0
  -28.6801   -5.2918   35.0341 O   0  0  0  0  0  0  0  0  0  0  0  0
  -29.6237   -4.3335   33.2275 O   0  0  0  0  0  0  0  0  0  0  0  0
  -24.7622   -9.2546   34.1876 C   0  0  0  0  0  0  0  0  0  0  0  0
  -24.2645   -9.4494   32.9135 C   0  0  0  0  0  0  0  0  0  0  0  0
  -24.3135  -10.6477   32.2491 C   0  0  0  0  0  0  0  0  0  0  0  0
  -24.8930  -11.7262   32.8859 C   0  0  0  0  0  0  0  0  0  0  0  0
  -24.9501  -13.0330   32.1699 C   0  0  0  0  0  0  0  0  0  0  0  0
  -25.3914  -11.5582   34.1443 C   0  0  0  0  0  0  0  0  0  0  0  0
  -25.3402  -10.3370   34.8183 C   0  0  0  0  0  0  0  0  0  0  0  0
  -25.8991  -10.2137   36.1876 C   0  0  0  0  0  0  0  0  0  0  0  0
  1  2  1  0
  2  3  1  0
  3  4  2  0
  3  5  1  1
  5  6  1  0
  6  7  2  0
  7  8  1  0
  8  9  1  0
  9 10  2  0
 10 11  1  0
 11 12  2  0
 12 13  1  0
 13 14  1  0
 14 15  2  0
 15 16  1  0
 16 17  2  0
 17 18  1  0
 17 19  1  0
 19 20  2  0
 20 21  1  0
 20 22  1  0
 22 23  1  0
 12 24  1  0
 24 25  2  0
  8 26  1  0
 26 27  2  0
 27 28  1  0
 28 29  2  0
 28 30  1  0
  3 31  1  0
 31 32  2  0
 32 33  1  0
 33 34  2  0
 34 35  1  0
 34 36  1  0
 36 37  2  0
 37 38  1  0
 27  6  1  0
 37 31  1  0
 25  9  1  0
 23 13  2  0
 22 15  1  0
M  CHG  1  30  -1
M  END
>  <shape_align_shape_tanimoto>  (2) 
0.37058894213448307

>  <shape_align_color_tanimoto>  (2) 
0.10836204127359472

>  <metric>  (2) 
color

>  <metric_score>  (2) 
0.108

>  <template_pid>  (2) 
5CZB

>  <template_shape_score>  (2) 
0.371

>  <template_color_score>  (2) 
0.108

>  <template_combo_score>  (2) 
0.239

$$$$
5CZB_combo_pose
     RDKit          3D

 38 42  0  0  0  0  0  0  0  0999 V2000
  -31.0343   -8.1328   33.9563 C   0  0  0  0  0  0  0  0  0  0  0  0
  -29.9116   -8.4770   33.2354 O   0  0  0  0  0  0  0  0  0  0  0  0
  -28.5712   -7.5927   33.8234 P   0  0  1  0  0  5  0  0  0  0  0  0
  -28.9264   -7.0978   35.2116 O   0  0  0  0  0  0  0  0  0  0  0  0
  -27.2712   -8.7354   33.9813 N   0  0  0  0  0  0  0  0  0  0  0  0
  -26.3049   -8.8746   32.9650 C   0  0  0  0  0  0  0  0  0  0  0  0
  -26.2688   -8.1819   31.8136 N   0  0  0  0  0  0  0  0  0  0  0  0
  -25.2499   -8.5310   31.0647 N   0  0  0  0  0  0  0  0  0  0  0  0
  -24.8355   -8.0622   29.7858 C   0  0  0  0  0  0  0  0  0  0  0  0
  -24.1270   -8.9184   28.9348 C   0  0  0  0  0  0  0  0  0  0  0  0
  -23.7043   -8.5080   27.6849 C   0  0  0  0  0  0  0  0  0  0  0  0
  -23.9678   -7.2315   27.2298 C   0  0  0  0  0  0  0  0  0  0  0  0
  -23.5258   -6.7864   25.9100 C   0  0  0  0  0  0  0  0  0  0  0  0
  -22.8244   -7.5726   25.0180 C   0  0  0  0  0  0  0  0  0  0  0  0
  -22.5806   -6.8236   23.8845 C   0  0  0  0  0  0  0  0  0  0  0  0
  -21.9379   -7.1045   22.7133 N   0  0  0  0  0  0  0  0  0  0  0  0
  -21.8297   -6.1851   21.7373 C   0  0  0  0  0  0  0  0  0  0  0  0
  -21.1165   -6.5780   20.5031 C   0  0  0  0  0  0  0  0  0  0  0  0
  -22.3792   -4.9387   21.9282 C   0  0  0  0  0  0  0  0  0  0  0  0
  -23.0300   -4.6651   23.1232 C   0  0  0  0  0  0  0  0  0  0  0  0
  -23.5872   -3.3926   23.3097 N   0  0  0  0  0  0  0  0  0  0  0  0
  -23.1324   -5.5975   24.0968 N   0  0  0  0  0  0  0  0  0  0  0  0
  -23.6934   -5.5925   25.3127 N   0  0  0  0  0  0  0  0  0  0  0  0
  -24.6668   -6.3758   28.0606 C   0  0  0  0  0  0  0  0  0  0  0  0
  -25.0979   -6.7863   29.3285 C   0  0  0  0  0  0  0  0  0  0  0  0
  -24.5904   -9.4870   31.7449 C   0  0  0  0  0  0  0  0  0  0  0  0
  -25.2189   -9.7244   32.9291 C   0  0  0  0  0  0  0  0  0  0  0  0
  -24.8153  -10.6769   33.9319 C   0  0  0  0  0  0  0  0  0  0  0  0
  -25.4557  -10.8405   35.0140 O   0  0  0  0  0  0  0  0  0  0  0  0
  -23.6946  -11.4681   33.7579 O   0  0  0  0  0  0  0  0  0  0  0  0
  -28.2228   -6.2616   32.7136 C   0  0  0  0  0  0  0  0  0  0  0  0
  -28.6294   -6.2898   31.3909 C   0  0  0  0  0  0  0  0  0  0  0  0
  -28.3444   -5.2365   30.5444 C   0  0  0  0  0  0  0  0  0  0  0  0
  -27.6499   -4.1267   30.9819 C   0  0  0  0  0  0  0  0  0  0  0  0
  -27.3212   -2.9728   30.1099 C   0  0  0  0  0  0  0  0  0  0  0  0
  -27.2393   -4.0818   32.2894 C   0  0  0  0  0  0  0  0  0  0  0  0
  -27.5297   -5.1397   33.1256 C   0  0  0  0  0  0  0  0  0  0  0  0
  -27.0715   -5.0633   34.5398 C   0  0  0  0  0  0  0  0  0  0  0  0
  1  2  1  0
  2  3  1  0
  3  4  2  0
  3  5  1  1
  5  6  1  0
  6  7  2  0
  7  8  1  0
  8  9  1  0
  9 10  2  0
 10 11  1  0
 11 12  2  0
 12 13  1  0
 13 14  1  0
 14 15  2  0
 15 16  1  0
 16 17  2  0
 17 18  1  0
 17 19  1  0
 19 20  2  0
 20 21  1  0
 20 22  1  0
 22 23  1  0
 12 24  1  0
 24 25  2  0
  8 26  1  0
 26 27  2  0
 27 28  1  0
 28 29  2  0
 28 30  1  0
  3 31  1  0
 31 32  2  0
 32 33  1  0
 33 34  2  0
 34 35  1  0
 34 36  1  0
 36 37  2  0
 37 38  1  0
 27  6  1  0
 37 31  1  0
 25  9  1  0
 23 13  2  0
 22 15  1  0
M  CHG  1  30  -1
M  END
>  <shape_align_shape_tanimoto>  (3) 
0.44107271672001586

>  <shape_align_color_tanimoto>  (3) 
0.098632702423530408

>  <metric>  (3) 
combo

>  <metric_score>  (3) 
0.270

>  <template_pid>  (3) 
5CZB

>  <template_shape_score>  (3) 
0.441

>  <template_color_score>  (3) 
0.099

>  <template_combo_score>  (3) 
0.270

$$$$
