6UIL_shape_pose
     RDKit          3D

 17 16  0  0  0  0  0  0  0  0999 V2000
  105.5579   -8.9648    7.3917 N   0  0  0  0  0  0  0  0  0  0  0  0
  106.8482   -8.9685    8.0154 C   0  0  0  0  0  0  0  0  0  0  0  0
  107.7822  -10.0244    7.5236 C   0  0  0  0  0  0  0  0  0  0  0  0
  108.1792   -9.9925    6.1002 C   0  0  0  0  0  0  0  0  0  0  0  0
  107.2110  -10.1286    5.0930 N   0  0  0  0  0  0  0  0  0  0  0  0
  107.6845  -10.8923    3.9229 C   0  0  0  0  0  0  0  0  0  0  0  0
  107.9226  -12.2992    4.1925 C   0  0  0  0  0  0  0  0  0  0  0  0
  108.4985  -13.1878    3.1747 C   0  0  0  0  0  0  0  0  0  0  0  0
  107.8626  -13.3922    1.8548 C   0  0  0  0  0  0  0  0  0  0  0  0
  107.8952  -12.1952    0.9759 C   0  0  0  0  0  0  0  0  0  0  0  0
  107.2034  -12.3680   -0.3635 C   0  0  0  0  0  0  0  0  0  0  0  0
  105.8716  -12.6873   -0.0924 O   0  0  0  0  0  0  0  0  0  0  0  0
  107.2571  -11.1115   -1.0146 O   0  0  0  0  0  0  0  0  0  0  0  0
  107.8894  -13.3671   -1.2271 C   0  0  0  0  0  0  0  0  0  0  0  0
  109.1969  -12.9424   -1.4195 F   0  0  0  0  0  0  0  0  0  0  0  0
  107.8443  -14.6287   -0.7174 F   0  0  0  0  0  0  0  0  0  0  0  0
  107.2468  -13.3685   -2.4907 F   0  0  0  0  0  0  0  0  0  0  0  0
  1  2  1  0
  2  3  1  0
  3  4  1  0
  4  5  1  0
  5  6  1  0
  6  7  1  0
  7  8  1  0
  8  9  1  0
  9 10  1  0
 10 11  1  0
 11 12  1  0
 11 13  1  0
 11 14  1  0
 14 15  1  0
 14 16  1  0
 14 17  1  0
M  CHG  2   1   1   5   1
M  END
>  <shape_align_shape_tanimoto>  (1) 
0.63342552711582834

>  <shape_align_color_tanimoto>  (1) 
0.00019082283891601218

>  <metric>  (1) 
shape

>  <metric_score>  (1) 
0.633

>  <template_pid>  (1) 
6UIL

>  <template_shape_score>  (1) 
0.633

>  <template_color_score>  (1) 
0.000

>  <template_combo_score>  (1) 
0.317

$$$$
6UIL_color_pose
     RDKit          3D

 17 16  0  0  0  0  0  0  0  0999 V2000
  107.4183  -12.2693   -2.8736 N   0  0  0  0  0  0  0  0  0  0  0  0
  107.5194  -13.6635   -2.4536 C   0  0  0  0  0  0  0  0  0  0  0  0
  108.1261  -13.6137   -1.0461 C   0  0  0  0  0  0  0  0  0  0  0  0
  107.1608  -12.8084   -0.2022 C   0  0  0  0  0  0  0  0  0  0  0  0
  107.6886  -12.7208    1.1761 N   0  0  0  0  0  0  0  0  0  0  0  0
  107.2731  -13.8711    1.8850 C   0  0  0  0  0  0  0  0  0  0  0  0
  108.2052  -14.4642    2.8594 C   0  0  0  0  0  0  0  0  0  0  0  0
  108.6601  -13.7844    4.0706 C   0  0  0  0  0  0  0  0  0  0  0  0
  109.4238  -12.5616    4.1644 C   0  0  0  0  0  0  0  0  0  0  0  0
  108.9871  -11.2388    3.7349 C   0  0  0  0  0  0  0  0  0  0  0  0
  107.7272  -10.7250    4.4001 C   0  0  0  0  0  0  0  0  0  0  0  0
  106.6159  -11.5160    4.2015 O   0  0  0  0  0  0  0  0  0  0  0  0
  107.8843  -10.5846    5.7889 O   0  0  0  0  0  0  0  0  0  0  0  0
  107.4600   -9.3025    3.8897 C   0  0  0  0  0  0  0  0  0  0  0  0
  106.3145   -8.7989    4.4764 F   0  0  0  0  0  0  0  0  0  0  0  0
  107.2683   -9.2910    2.5321 F   0  0  0  0  0  0  0  0  0  0  0  0
  108.5212   -8.4884    4.2340 F   0  0  0  0  0  0  0  0  0  0  0  0
  1  2  1  0
  2  3  1  0
  3  4  1  0
  4  5  1  0
  5  6  1  0
  6  7  1  0
  7  8  1  0
  8  9  1  0
  9 10  1  0
 10 11  1  0
 11 12  1  0
 11 13  1  0
 11 14  1  0
 14 15  1  0
 14 16  1  0
 14 17  1  0
M  CHG  2   1   1   5   1
M  END
>  <shape_align_shape_tanimoto>  (2) 
0.50553871356309266

>  <shape_align_color_tanimoto>  (2) 
0.088344673740174198

>  <metric>  (2) 
color

>  <metric_score>  (2) 
0.088

>  <template_pid>  (2) 
6UIL

>  <template_shape_score>  (2) 
0.506

>  <template_color_score>  (2) 
0.088

>  <template_combo_score>  (2) 
0.297

$$$$
6UIL_combo_pose
     RDKit          3D

 17 16  0  0  0  0  0  0  0  0999 V2000
  107.3268  -11.8536   -1.4557 N   0  0  0  0  0  0  0  0  0  0  0  0
  107.1052  -13.2440   -1.6925 C   0  0  0  0  0  0  0  0  0  0  0  0
  107.9619  -14.2139   -0.9662 C   0  0  0  0  0  0  0  0  0  0  0  0
  107.8942  -14.2372    0.5094 C   0  0  0  0  0  0  0  0  0  0  0  0
  108.2740  -13.0615    1.2279 N   0  0  0  0  0  0  0  0  0  0  0  0
  107.1798  -12.5196    2.0249 C   0  0  0  0  0  0  0  0  0  0  0  0
  107.4449  -11.0826    2.4172 C   0  0  0  0  0  0  0  0  0  0  0  0
  108.6802  -10.9174    3.2246 C   0  0  0  0  0  0  0  0  0  0  0  0
  108.7375  -11.6392    4.5063 C   0  0  0  0  0  0  0  0  0  0  0  0
  107.7014  -11.3253    5.5175 C   0  0  0  0  0  0  0  0  0  0  0  0
  107.6666   -9.8858    5.9758 C   0  0  0  0  0  0  0  0  0  0  0  0
  107.4226   -9.0089    4.9245 O   0  0  0  0  0  0  0  0  0  0  0  0
  108.8583   -9.5109    6.5841 O   0  0  0  0  0  0  0  0  0  0  0  0
  106.5384   -9.8064    7.0090 C   0  0  0  0  0  0  0  0  0  0  0  0
  106.4189   -8.5182    7.4980 F   0  0  0  0  0  0  0  0  0  0  0  0
  105.3461  -10.2083    6.4680 F   0  0  0  0  0  0  0  0  0  0  0  0
  106.8135  -10.6081    8.0936 F   0  0  0  0  0  0  0  0  0  0  0  0
  1  2  1  0
  2  3  1  0
  3  4  1  0
  4  5  1  0
  5  6  1  0
  6  7  1  0
  7  8  1  0
  8  9  1  0
  9 10  1  0
 10 11  1  0
 11 12  1  0
 11 13  1  0
 11 14  1  0
 14 15  1  0
 14 16  1  0
 14 17  1  0
M  CHG  2   1   1   5   1
M  END
>  <shape_align_shape_tanimoto>  (3) 
0.58846762421856447

>  <shape_align_color_tanimoto>  (3) 
0.079179447561102581

>  <metric>  (3) 
combo

>  <metric_score>  (3) 
0.334

>  <template_pid>  (3) 
6UIL

>  <template_shape_score>  (3) 
0.588

>  <template_color_score>  (3) 
0.079

>  <template_combo_score>  (3) 
0.334

$$$$
