5A6H_shape_pose
     RDKit          3D

 21 21  0  0  0  0  0  0  0  0999 V2000
   13.5872    5.6589   14.6439 N   0  0  0  0  0  0  0  0  0  0  0  0
   14.9681    4.8877   15.3727 S   0  0  0  0  0  0  0  0  0  0  0  0
   14.6552    3.4541   15.6670 O   0  0  0  0  0  0  0  0  0  0  0  0
   15.2680    5.6203   16.6289 O   0  0  0  0  0  0  0  0  0  0  0  0
   16.3405    4.9917   14.2407 C   0  0  0  0  0  0  0  0  0  0  0  0
   17.5647    4.3493   14.7994 C   0  0  0  0  0  0  0  0  0  0  0  0
   17.3557    2.9451   15.0909 N   0  0  0  0  0  0  0  0  0  0  0  0
   17.0057    1.9738   14.1395 C   0  0  0  0  0  0  0  0  0  0  0  0
   16.8838    2.4155   12.9354 O   0  0  0  0  0  0  0  0  0  0  0  0
   16.7757    0.5686   14.3847 C   0  0  0  0  0  0  0  0  0  0  0  0
   16.7865   -0.1262   15.6709 C   0  0  0  0  0  0  0  0  0  0  0  0
   15.6744    0.3220   16.5183 C   0  0  0  0  0  0  0  0  0  0  0  0
   15.7479    1.1077   17.6319 C   0  0  0  0  0  0  0  0  0  0  0  0
   14.6383    1.4793   18.3537 C   0  0  0  0  0  0  0  0  0  0  0  0
   13.3841    1.0687   17.9797 C   0  0  0  0  0  0  0  0  0  0  0  0
   12.2594    1.4511   18.7194 O   0  0  0  0  0  0  0  0  0  0  0  0
   13.2700    0.2688   16.8534 C   0  0  0  0  0  0  0  0  0  0  0  0
   11.5220   -0.2981   16.3401 Br  0  0  0  0  0  0  0  0  0  0  0  0
   14.3914   -0.0951   16.1402 C   0  0  0  0  0  0  0  0  0  0  0  0
   16.4859   -0.1577   13.3262 N   0  0  0  0  0  0  0  0  0  0  0  0
   16.2610   -1.4880   13.5094 O   0  0  0  0  0  0  0  0  0  0  0  0
  1  2  1  0
  2  3  2  0
  2  4  2  0
  2  5  1  0
  5  6  1  0
  6  7  1  0
  7  8  1  0
  8  9  2  0
  8 10  1  0
 10 11  1  0
 11 12  1  0
 12 13  2  0
 13 14  1  0
 14 15  2  0
 15 16  1  0
 15 17  1  0
 17 18  1  0
 17 19  2  0
 10 20  2  0
 20 21  1  0
 19 12  1  0
M  END
>  <shape_align_shape_tanimoto>  (1) 
0.64059532068012082

>  <shape_align_color_tanimoto>  (1) 
0.02643406274210635

>  <metric>  (1) 
shape

>  <metric_score>  (1) 
0.641

>  <template_pid>  (1) 
5A6H

>  <template_shape_score>  (1) 
0.641

>  <template_color_score>  (1) 
0.026

>  <template_combo_score>  (1) 
0.334

$$$$
5A6H_color_pose
     RDKit          3D

 21 21  0  0  0  0  0  0  0  0999 V2000
   12.0657    4.4641   15.0289 N   0  0  0  0  0  0  0  0  0  0  0  0
   11.8371    6.1242   15.3100 S   0  0  0  0  0  0  0  0  0  0  0  0
   10.7928    6.3347   16.3871 O   0  0  0  0  0  0  0  0  0  0  0  0
   11.2503    6.7241   14.0517 O   0  0  0  0  0  0  0  0  0  0  0  0
   13.3111    7.0162   15.6660 C   0  0  0  0  0  0  0  0  0  0  0  0
   14.0062    6.5181   16.8839 C   0  0  0  0  0  0  0  0  0  0  0  0
   14.3723    5.1332   16.7117 N   0  0  0  0  0  0  0  0  0  0  0  0
   15.2373    4.6501   15.6999 C   0  0  0  0  0  0  0  0  0  0  0  0
   15.7645    5.4188   14.8559 O   0  0  0  0  0  0  0  0  0  0  0  0
   15.5553    3.2121   15.5977 C   0  0  0  0  0  0  0  0  0  0  0  0
   16.4488    2.6992   14.5552 C   0  0  0  0  0  0  0  0  0  0  0  0
   16.6516    1.2374   14.6084 C   0  0  0  0  0  0  0  0  0  0  0  0
   17.6582    0.6295   15.3303 C   0  0  0  0  0  0  0  0  0  0  0  0
   17.7662   -0.7457   15.3138 C   0  0  0  0  0  0  0  0  0  0  0  0
   16.8783   -1.5260   14.5827 C   0  0  0  0  0  0  0  0  0  0  0  0
   16.9697   -2.9126   14.5527 O   0  0  0  0  0  0  0  0  0  0  0  0
   15.8701   -0.9272   13.8589 C   0  0  0  0  0  0  0  0  0  0  0  0
   14.6105   -1.9218   12.8297 Br  0  0  0  0  0  0  0  0  0  0  0  0
   15.7726    0.4358   13.8825 C   0  0  0  0  0  0  0  0  0  0  0  0
   15.0228    2.4284   16.4518 N   0  0  0  0  0  0  0  0  0  0  0  0
   15.2105    1.0921   16.4957 O   0  0  0  0  0  0  0  0  0  0  0  0
  1  2  1  0
  2  3  2  0
  2  4  2  0
  2  5  1  0
  5  6  1  0
  6  7  1  0
  7  8  1  0
  8  9  2  0
  8 10  1  0
 10 11  1  0
 11 12  1  0
 12 13  2  0
 13 14  1  0
 14 15  2  0
 15 16  1  0
 15 17  1  0
 17 18  1  0
 17 19  2  0
 10 20  2  0
 20 21  1  0
 19 12  1  0
M  END
>  <shape_align_shape_tanimoto>  (2) 
0.4989518404013657

>  <shape_align_color_tanimoto>  (2) 
0.20510753548932639

>  <metric>  (2) 
color

>  <metric_score>  (2) 
0.205

>  <template_pid>  (2) 
5A6H

>  <template_shape_score>  (2) 
0.499

>  <template_color_score>  (2) 
0.205

>  <template_combo_score>  (2) 
0.352

$$$$
5A6H_combo_pose
     RDKit          3D

 21 21  0  0  0  0  0  0  0  0999 V2000
   12.0657    4.4641   15.0289 N   0  0  0  0  0  0  0  0  0  0  0  0
   11.8371    6.1242   15.3100 S   0  0  0  0  0  0  0  0  0  0  0  0
   10.7928    6.3347   16.3871 O   0  0  0  0  0  0  0  0  0  0  0  0
   11.2503    6.7241   14.0517 O   0  0  0  0  0  0  0  0  0  0  0  0
   13.3111    7.0162   15.6660 C   0  0  0  0  0  0  0  0  0  0  0  0
   14.0062    6.5181   16.8839 C   0  0  0  0  0  0  0  0  0  0  0  0
   14.3723    5.1332   16.7117 N   0  0  0  0  0  0  0  0  0  0  0  0
   15.2373    4.6501   15.6999 C   0  0  0  0  0  0  0  0  0  0  0  0
   15.7645    5.4188   14.8559 O   0  0  0  0  0  0  0  0  0  0  0  0
   15.5553    3.2121   15.5977 C   0  0  0  0  0  0  0  0  0  0  0  0
   16.4488    2.6992   14.5552 C   0  0  0  0  0  0  0  0  0  0  0  0
   16.6516    1.2374   14.6084 C   0  0  0  0  0  0  0  0  0  0  0  0
   17.6582    0.6295   15.3303 C   0  0  0  0  0  0  0  0  0  0  0  0
   17.7662   -0.7457   15.3138 C   0  0  0  0  0  0  0  0  0  0  0  0
   16.8783   -1.5260   14.5827 C   0  0  0  0  0  0  0  0  0  0  0  0
   16.9697   -2.9126   14.5527 O   0  0  0  0  0  0  0  0  0  0  0  0
   15.8701   -0.9272   13.8589 C   0  0  0  0  0  0  0  0  0  0  0  0
   14.6105   -1.9218   12.8297 Br  0  0  0  0  0  0  0  0  0  0  0  0
   15.7726    0.4358   13.8825 C   0  0  0  0  0  0  0  0  0  0  0  0
   15.0228    2.4284   16.4518 N   0  0  0  0  0  0  0  0  0  0  0  0
   15.2105    1.0921   16.4957 O   0  0  0  0  0  0  0  0  0  0  0  0
  1  2  1  0
  2  3  2  0
  2  4  2  0
  2  5  1  0
  5  6  1  0
  6  7  1  0
  7  8  1  0
  8  9  2  0
  8 10  1  0
 10 11  1  0
 11 12  1  0
 12 13  2  0
 13 14  1  0
 14 15  2  0
 15 16  1  0
 15 17  1  0
 17 18  1  0
 17 19  2  0
 10 20  2  0
 20 21  1  0
 19 12  1  0
M  END
>  <shape_align_shape_tanimoto>  (3) 
0.4989518404013657

>  <shape_align_color_tanimoto>  (3) 
0.20510753548932639

>  <metric>  (3) 
combo

>  <metric_score>  (3) 
0.352

>  <template_pid>  (3) 
5A6H

>  <template_shape_score>  (3) 
0.499

>  <template_color_score>  (3) 
0.205

>  <template_combo_score>  (3) 
0.352

$$$$
