1IUP_shape_pose
     RDKit          3D

  6  5  0  0  0  0  0  0  0  0999 V2000
  -10.1458  -26.1481  -34.8147 C   0  0  0  0  0  0  0  0  0  0  0  0
  -11.4645  -26.9051  -34.7782 C   0  0  0  0  0  0  0  0  0  0  0  0
  -12.4179  -26.4340  -35.8275 C   0  0  0  0  0  0  0  0  0  0  0  0
  -11.1564  -28.3285  -34.9939 C   0  0  0  0  0  0  0  0  0  0  0  0
  -11.9857  -29.1943  -34.6592 O   0  0  0  0  0  0  0  0  0  0  0  0
   -9.9558  -28.7335  -35.5652 O   0  0  0  0  0  0  0  0  0  0  0  0
  1  2  1  0
  2  3  1  0
  2  4  1  0
  4  5  2  0
  4  6  1  0
M  CHG  1   6  -1
M  END
>  <shape_align_shape_tanimoto>  (1) 
0.22538988167034613

>  <shape_align_color_tanimoto>  (1) 
0.044327872488798985

>  <metric>  (1) 
shape

>  <metric_score>  (1) 
0.225

>  <template_pid>  (1) 
1IUP

>  <template_shape_score>  (1) 
0.225

>  <template_color_score>  (1) 
0.044

>  <template_combo_score>  (1) 
0.135

$$$$
1IUP_color_pose
     RDKit          3D

  6  5  0  0  0  0  0  0  0  0999 V2000
  -10.8602  -26.1007  -34.2369 C   0  0  0  0  0  0  0  0  0  0  0  0
  -11.7682  -26.9842  -35.0461 C   0  0  0  0  0  0  0  0  0  0  0  0
  -11.9281  -26.3785  -36.4121 C   0  0  0  0  0  0  0  0  0  0  0  0
  -11.1086  -28.3072  -35.1961 C   0  0  0  0  0  0  0  0  0  0  0  0
  -11.0662  -29.0706  -34.1854 O   0  0  0  0  0  0  0  0  0  0  0  0
  -10.5395  -28.7624  -36.3576 O   0  0  0  0  0  0  0  0  0  0  0  0
  1  2  1  0
  2  3  1  0
  2  4  1  0
  4  5  2  0
  4  6  1  0
M  CHG  1   6  -1
M  END
>  <shape_align_shape_tanimoto>  (2) 
0.21653641333223242

>  <shape_align_color_tanimoto>  (2) 
0.076917416093984073

>  <metric>  (2) 
color

>  <metric_score>  (2) 
0.077

>  <template_pid>  (2) 
1IUP

>  <template_shape_score>  (2) 
0.217

>  <template_color_score>  (2) 
0.077

>  <template_combo_score>  (2) 
0.147

$$$$
1IUP_combo_pose
     RDKit          3D

  6  5  0  0  0  0  0  0  0  0999 V2000
  -10.8602  -26.1007  -34.2369 C   0  0  0  0  0  0  0  0  0  0  0  0
  -11.7682  -26.9842  -35.0461 C   0  0  0  0  0  0  0  0  0  0  0  0
  -11.9281  -26.3785  -36.4121 C   0  0  0  0  0  0  0  0  0  0  0  0
  -11.1086  -28.3072  -35.1961 C   0  0  0  0  0  0  0  0  0  0  0  0
  -11.0662  -29.0706  -34.1854 O   0  0  0  0  0  0  0  0  0  0  0  0
  -10.5395  -28.7624  -36.3576 O   0  0  0  0  0  0  0  0  0  0  0  0
  1  2  1  0
  2  3  1  0
  2  4  1  0
  4  5  2  0
  4  6  1  0
M  CHG  1   6  -1
M  END
>  <shape_align_shape_tanimoto>  (3) 
0.21653641333223242

>  <shape_align_color_tanimoto>  (3) 
0.076917416093984073

>  <metric>  (3) 
combo

>  <metric_score>  (3) 
0.147

>  <template_pid>  (3) 
1IUP

>  <template_shape_score>  (3) 
0.217

>  <template_color_score>  (3) 
0.077

>  <template_combo_score>  (3) 
0.147

$$$$
