3CJ5_shape_pose
     RDKit          3D

 30 32  0  0  0  0  0  0  0  0999 V2000
  -27.8874   -3.7542   32.4191 C   0  0  0  0  0  0  0  0  0  0  0  0
  -27.3575   -3.4721   31.0539 C   0  0  2  0  0  0  0  0  0  0  0  0
  -28.3504   -3.7018   29.9370 C   0  0  0  0  0  0  0  0  0  0  0  0
  -28.6088   -5.1691   29.7070 C   0  0  2  0  0  0  0  0  0  0  0  0
  -30.0313   -5.4717   30.1185 C   0  0  0  0  0  0  0  0  0  0  0  0
  -27.6717   -6.0414   30.5106 C   0  0  0  0  0  0  0  0  0  0  0  0
  -26.2785   -5.5802   30.4250 N   0  0  0  0  0  0  0  0  0  0  0  0
  -25.3370   -6.5533   30.0490 C   0  0  0  0  0  0  0  0  0  0  0  0
  -25.8768   -7.7215   29.8416 O   0  0  0  0  0  0  0  0  0  0  0  0
  -23.9299   -6.4892   29.8593 C   0  0  0  0  0  0  0  0  0  0  0  0
  -23.1237   -5.3852   29.9862 C   0  0  0  0  0  0  0  0  0  0  0  0
  -21.7449   -5.4167   29.7758 C   0  0  0  0  0  0  0  0  0  0  0  0
  -20.6732   -3.8590   29.9640 Br  0  0  0  0  0  0  0  0  0  0  0  0
  -21.1370   -6.5853   29.4261 C   0  0  0  0  0  0  0  0  0  0  0  0
  -21.8967   -7.7030   29.2893 C   0  0  0  0  0  0  0  0  0  0  0  0
  -23.2748   -7.6659   29.5008 C   0  0  0  0  0  0  0  0  0  0  0  0
  -23.9533   -8.9042   29.3274 N   0  0  0  0  0  0  0  0  0  0  0  0
  -24.0683   -9.7191   30.5123 C   0  0  0  0  0  0  0  0  0  0  0  0
  -23.5448   -9.2152   31.5509 O   0  0  0  0  0  0  0  0  0  0  0  0
  -24.7445  -11.0155   30.4668 C   0  0  0  0  0  0  0  0  0  0  0  0
  -24.7166  -11.6150   31.8766 C   0  0  0  0  0  0  0  0  0  0  0  0
  -25.4219  -10.7247   32.8528 C   0  0  0  0  0  0  0  0  0  0  0  0
  -25.9685   -9.6331   32.4705 O   0  0  0  0  0  0  0  0  0  0  0  0
  -25.4822  -11.1067   34.2344 N   0  0  0  0  0  0  0  0  0  0  0  0
  -24.8646  -12.3538   34.7030 C   0  0  0  0  0  0  0  0  0  0  0  0
  -24.1733  -12.0831   36.0163 C   0  0  0  0  0  0  0  0  0  0  0  0
  -24.2203  -10.7324   36.3589 O   0  0  0  0  0  0  0  0  0  0  0  0
  -25.5242  -10.2846   36.5324 C   0  0  0  0  0  0  0  0  0  0  0  0
  -26.1683  -10.2365   35.1716 C   0  0  0  0  0  0  0  0  0  0  0  0
  -26.0547   -4.2067   30.7401 C   0  0  0  0  0  0  0  0  0  0  0  0
  2  1  1  1
  2  3  1  0
  3  4  1  0
  4  5  1  1
  4  6  1  0
  6  7  1  0
  7  8  1  0
  8  9  2  0
  8 10  1  0
 10 11  2  0
 11 12  1  0
 12 13  1  0
 12 14  2  0
 14 15  1  0
 15 16  2  0
 16 17  1  0
 17 18  1  0
 18 19  2  0
 18 20  1  0
 20 21  1  0
 21 22  1  0
 22 23  2  0
 22 24  1  0
 24 25  1  0
 25 26  1  0
 26 27  1  0
 27 28  1  0
 28 29  1  0
  7 30  1  0
 30  2  1  0
 16 10  1  0
 29 24  1  0
M  END
>  <shape_align_shape_tanimoto>  (1) 
0.53115565237830653

>  <shape_align_color_tanimoto>  (1) 
0.0066870822066864965

>  <metric>  (1) 
shape

>  <metric_score>  (1) 
0.531

>  <template_pid>  (1) 
3CJ5

>  <template_shape_score>  (1) 
0.531

>  <template_color_score>  (1) 
0.007

>  <template_combo_score>  (1) 
0.269

$$$$
3CJ5_color_pose
     RDKit          3D

 30 32  0  0  0  0  0  0  0  0999 V2000
  -23.5180  -12.7479   33.5951 C   0  0  0  0  0  0  0  0  0  0  0  0
  -23.6800  -11.2872   33.2773 C   0  0  2  0  0  0  0  0  0  0  0  0
  -23.8284  -10.5528   34.5878 C   0  0  0  0  0  0  0  0  0  0  0  0
  -25.2123  -10.0379   34.8154 C   0  0  2  0  0  0  0  0  0  0  0  0
  -26.2187  -11.0778   35.2107 C   0  0  0  0  0  0  0  0  0  0  0  0
  -25.7260   -9.1553   33.6779 C   0  0  0  0  0  0  0  0  0  0  0  0
  -25.3021   -9.6631   32.3957 N   0  0  0  0  0  0  0  0  0  0  0  0
  -25.2362   -8.9916   31.1768 C   0  0  0  0  0  0  0  0  0  0  0  0
  -24.7847   -9.6927   30.1842 O   0  0  0  0  0  0  0  0  0  0  0  0
  -25.5884   -7.6395   30.8523 C   0  0  0  0  0  0  0  0  0  0  0  0
  -26.4432   -6.8626   31.6451 C   0  0  0  0  0  0  0  0  0  0  0  0
  -26.8348   -5.5885   31.2835 C   0  0  0  0  0  0  0  0  0  0  0  0
  -28.0108   -4.5702   32.4203 Br  0  0  0  0  0  0  0  0  0  0  0  0
  -26.4090   -5.0182   30.1321 C   0  0  0  0  0  0  0  0  0  0  0  0
  -25.5630   -5.7527   29.3208 C   0  0  0  0  0  0  0  0  0  0  0  0
  -25.1527   -7.0407   29.6642 C   0  0  0  0  0  0  0  0  0  0  0  0
  -24.2806   -7.6798   28.7494 N   0  0  0  0  0  0  0  0  0  0  0  0
  -24.2814   -7.4650   27.3449 C   0  0  0  0  0  0  0  0  0  0  0  0
  -25.0595   -6.6876   26.7426 O   0  0  0  0  0  0  0  0  0  0  0  0
  -23.2993   -8.1996   26.4960 C   0  0  0  0  0  0  0  0  0  0  0  0
  -23.3804   -7.8001   25.0494 C   0  0  0  0  0  0  0  0  0  0  0  0
  -23.1087   -6.3643   24.8353 C   0  0  0  0  0  0  0  0  0  0  0  0
  -22.8921   -5.5466   25.7829 O   0  0  0  0  0  0  0  0  0  0  0  0
  -23.0675   -5.7712   23.5199 N   0  0  0  0  0  0  0  0  0  0  0  0
  -22.7937   -4.3508   23.4203 C   0  0  0  0  0  0  0  0  0  0  0  0
  -21.8305   -4.1313   22.2705 C   0  0  0  0  0  0  0  0  0  0  0  0
  -22.4457   -4.6501   21.1202 O   0  0  0  0  0  0  0  0  0  0  0  0
  -22.4490   -6.0427   21.1667 C   0  0  0  0  0  0  0  0  0  0  0  0
  -23.2858   -6.5583   22.3190 C   0  0  0  0  0  0  0  0  0  0  0  0
  -24.8939  -11.0917   32.4149 C   0  0  0  0  0  0  0  0  0  0  0  0
  2  1  1  1
  2  3  1  0
  3  4  1  0
  4  5  1  6
  4  6  1  0
  6  7  1  0
  7  8  1  0
  8  9  2  0
  8 10  1  0
 10 11  2  0
 11 12  1  0
 12 13  1  0
 12 14  2  0
 14 15  1  0
 15 16  2  0
 16 17  1  0
 17 18  1  0
 18 19  2  0
 18 20  1  0
 20 21  1  0
 21 22  1  0
 22 23  2  0
 22 24  1  0
 24 25  1  0
 25 26  1  0
 26 27  1  0
 27 28  1  0
 28 29  1  0
  7 30  1  0
 30  2  1  0
 16 10  1  0
 29 24  1  0
M  END
>  <shape_align_shape_tanimoto>  (2) 
0.48784541900452

>  <shape_align_color_tanimoto>  (2) 
0.094632331300903871

>  <metric>  (2) 
color

>  <metric_score>  (2) 
0.095

>  <template_pid>  (2) 
3CJ5

>  <template_shape_score>  (2) 
0.488

>  <template_color_score>  (2) 
0.095

>  <template_combo_score>  (2) 
0.291

$$$$
3CJ5_combo_pose
     RDKit          3D

 30 32  0  0  0  0  0  0  0  0999 V2000
  -23.5180  -12.7479   33.5951 C   0  0  0  0  0  0  0  0  0  0  0  0
  -23.6800  -11.2872   33.2773 C   0  0  2  0  0  0  0  0  0  0  0  0
  -23.8284  -10.5528   34.5878 C   0  0  0  0  0  0  0  0  0  0  0  0
  -25.2123  -10.0379   34.8154 C   0  0  2  0  0  0  0  0  0  0  0  0
  -26.2187  -11.0778   35.2107 C   0  0  0  0  0  0  0  0  0  0  0  0
  -25.7260   -9.1553   33.6779 C   0  0  0  0  0  0  0  0  0  0  0  0
  -25.3021   -9.6631   32.3957 N   0  0  0  0  0  0  0  0  0  0  0  0
  -25.2362   -8.9916   31.1768 C   0  0  0  0  0  0  0  0  0  0  0  0
  -24.7847   -9.6927   30.1842 O   0  0  0  0  0  0  0  0  0  0  0  0
  -25.5884   -7.6395   30.8523 C   0  0  0  0  0  0  0  0  0  0  0  0
  -26.4432   -6.8626   31.6451 C   0  0  0  0  0  0  0  0  0  0  0  0
  -26.8348   -5.5885   31.2835 C   0  0  0  0  0  0  0  0  0  0  0  0
  -28.0108   -4.5702   32.4203 Br  0  0  0  0  0  0  0  0  0  0  0  0
  -26.4090   -5.0182   30.1321 C   0  0  0  0  0  0  0  0  0  0  0  0
  -25.5630   -5.7527   29.3208 C   0  0  0  0  0  0  0  0  0  0  0  0
  -25.1527   -7.0407   29.6642 C   0  0  0  0  0  0  0  0  0  0  0  0
  -24.2806   -7.6798   28.7494 N   0  0  0  0  0  0  0  0  0  0  0  0
  -24.2814   -7.4650   27.3449 C   0  0  0  0  0  0  0  0  0  0  0  0
  -25.0595   -6.6876   26.7426 O   0  0  0  0  0  0  0  0  0  0  0  0
  -23.2993   -8.1996   26.4960 C   0  0  0  0  0  0  0  0  0  0  0  0
  -23.3804   -7.8001   25.0494 C   0  0  0  0  0  0  0  0  0  0  0  0
  -23.1087   -6.3643   24.8353 C   0  0  0  0  0  0  0  0  0  0  0  0
  -22.8921   -5.5466   25.7829 O   0  0  0  0  0  0  0  0  0  0  0  0
  -23.0675   -5.7712   23.5199 N   0  0  0  0  0  0  0  0  0  0  0  0
  -22.7937   -4.3508   23.4203 C   0  0  0  0  0  0  0  0  0  0  0  0
  -21.8305   -4.1313   22.2705 C   0  0  0  0  0  0  0  0  0  0  0  0
  -22.4457   -4.6501   21.1202 O   0  0  0  0  0  0  0  0  0  0  0  0
  -22.4490   -6.0427   21.1667 C   0  0  0  0  0  0  0  0  0  0  0  0
  -23.2858   -6.5583   22.3190 C   0  0  0  0  0  0  0  0  0  0  0  0
  -24.8939  -11.0917   32.4149 C   0  0  0  0  0  0  0  0  0  0  0  0
  2  1  1  1
  2  3  1  0
  3  4  1  0
  4  5  1  6
  4  6  1  0
  6  7  1  0
  7  8  1  0
  8  9  2  0
  8 10  1  0
 10 11  2  0
 11 12  1  0
 12 13  1  0
 12 14  2  0
 14 15  1  0
 15 16  2  0
 16 17  1  0
 17 18  1  0
 18 19  2  0
 18 20  1  0
 20 21  1  0
 21 22  1  0
 22 23  2  0
 22 24  1  0
 24 25  1  0
 25 26  1  0
 26 27  1  0
 27 28  1  0
 28 29  1  0
  7 30  1  0
 30  2  1  0
 16 10  1  0
 29 24  1  0
M  END
>  <shape_align_shape_tanimoto>  (3) 
0.48784541900452

>  <shape_align_color_tanimoto>  (3) 
0.094632331300903871

>  <metric>  (3) 
combo

>  <metric_score>  (3) 
0.291

>  <template_pid>  (3) 
3CJ5

>  <template_shape_score>  (3) 
0.488

>  <template_color_score>  (3) 
0.095

>  <template_combo_score>  (3) 
0.291

$$$$
