4X7I_shape_pose
     RDKit          3D

 27 30  0  0  0  0  0  0  0  0999 V2000
   22.0922   16.8853    9.0872 N   0  0  0  0  0  0  0  0  0  0  0  0
   22.3775   15.7488    8.5420 C   0  0  0  0  0  0  0  0  0  0  0  0
   22.7519   14.5955    9.2753 N   0  0  0  0  0  0  0  0  0  0  0  0
   23.4673   13.4735    8.7188 C   0  0  1  0  0  0  0  0  0  0  0  0
   24.9132   13.8374    8.7848 C   0  0  0  0  0  0  0  0  0  0  0  0
   25.3350   15.0394    9.3134 C   0  0  0  0  0  0  0  0  0  0  0  0
   26.6545   15.4175    9.4009 C   0  0  0  0  0  0  0  0  0  0  0  0
   26.9644   16.6765    9.9633 N   0  0  0  0  0  0  0  0  0  0  0  0
   28.2348   17.2279   10.1347 C   0  0  0  0  0  0  0  0  0  0  0  0
   29.2762   16.6353    9.7915 O   0  0  0  0  0  0  0  0  0  0  0  0
   28.4052   18.5644   10.7421 C   0  0  0  0  0  0  0  0  0  0  0  0
   29.6175   19.1454   10.9310 C   0  0  0  0  0  0  0  0  0  0  0  0
   29.7605   20.3910   11.4982 C   0  0  0  0  0  0  0  0  0  0  0  0
   28.6070   21.0703   11.8889 C   0  0  0  0  0  0  0  0  0  0  0  0
   28.7432   22.2909   12.4450 F   0  0  0  0  0  0  0  0  0  0  0  0
   27.3727   20.4760   11.6953 C   0  0  0  0  0  0  0  0  0  0  0  0
   27.3087   19.2554   11.1344 N   0  0  0  0  0  0  0  0  0  0  0  0
   27.5836   14.5217    8.9244 C   0  0  0  0  0  0  0  0  0  0  0  0
   27.1959   13.2940    8.3816 C   0  0  0  0  0  0  0  0  0  0  0  0
   25.8622   12.9544    8.3128 C   0  0  0  0  0  0  0  0  0  0  0  0
   25.5666   11.7524    7.7707 F   0  0  0  0  0  0  0  0  0  0  0  0
   23.0742   12.2845    9.5080 C   0  0  0  0  0  0  0  0  0  0  0  0
   23.2491   11.2166    8.6968 O   0  0  0  0  0  0  0  0  0  0  0  0
   22.8217   11.6102    7.4527 C   0  0  0  0  0  0  0  0  0  0  0  0
   23.1691   13.1011    7.3409 C   0  0  1  0  0  0  0  0  0  0  0  0
   22.0520   13.7421    6.6184 C   0  0  0  0  0  0  0  0  0  0  0  0
   22.3127   15.5579    6.7433 S   0  0  0  0  0  0  0  0  0  0  0  0
  1  2  2  0
  2  3  1  0
  3  4  1  0
  4  5  1  6
  5  6  2  0
  6  7  1  0
  7  8  1  0
  8  9  1  0
  9 10  2  0
  9 11  1  0
 11 12  2  0
 12 13  1  0
 13 14  2  0
 14 15  1  0
 14 16  1  0
 16 17  2  0
  7 18  2  0
 18 19  1  0
 19 20  2  0
 20 21  1  0
  4 22  1  0
 22 23  1  0
 23 24  1  0
 25 24  1  1
 25 26  1  0
 26 27  1  0
 27  2  1  0
 25  4  1  0
 20  5  1  0
 17 11  1  0
M  CHG  1   1   1
M  END
>  <shape_align_shape_tanimoto>  (1) 
0.70785892635386383

>  <shape_align_color_tanimoto>  (1) 
0.045113704143722087

>  <metric>  (1) 
shape

>  <metric_score>  (1) 
0.708

>  <template_pid>  (1) 
4X7I

>  <template_shape_score>  (1) 
0.708

>  <template_color_score>  (1) 
0.045

>  <template_combo_score>  (1) 
0.376

$$$$
4X7I_color_pose
     RDKit          3D

 27 30  0  0  0  0  0  0  0  0999 V2000
   21.2034   14.2296   11.1719 N   0  0  0  0  0  0  0  0  0  0  0  0
   21.6953   14.7075   10.0605 C   0  0  0  0  0  0  0  0  0  0  0  0
   22.0688   13.8914    8.9419 N   0  0  0  0  0  0  0  0  0  0  0  0
   22.9834   14.4309    7.9579 C   0  0  1  0  0  0  0  0  0  0  0  0
   24.4111   14.3527    8.3809 C   0  0  0  0  0  0  0  0  0  0  0  0
   25.2469   15.4588    8.5308 C   0  0  0  0  0  0  0  0  0  0  0  0
   26.5858   15.3161    8.9332 C   0  0  0  0  0  0  0  0  0  0  0  0
   27.4406   16.4691    9.0847 N   0  0  0  0  0  0  0  0  0  0  0  0
   27.4587   17.0887   10.3980 C   0  0  0  0  0  0  0  0  0  0  0  0
   26.7420   16.6037   11.3312 O   0  0  0  0  0  0  0  0  0  0  0  0
   28.3204   18.2719   10.5964 C   0  0  0  0  0  0  0  0  0  0  0  0
   28.3400   18.8694   11.8575 C   0  0  0  0  0  0  0  0  0  0  0  0
   29.1443   19.9942   12.0882 C   0  0  0  0  0  0  0  0  0  0  0  0
   29.9391   20.5334   11.0555 C   0  0  0  0  0  0  0  0  0  0  0  0
   30.7291   21.6338   11.2723 F   0  0  0  0  0  0  0  0  0  0  0  0
   29.8834   19.8946    9.8045 C   0  0  0  0  0  0  0  0  0  0  0  0
   29.0926   18.8015    9.6062 N   0  0  0  0  0  0  0  0  0  0  0  0
   27.0848   14.0380    9.1871 C   0  0  0  0  0  0  0  0  0  0  0  0
   26.2640   12.9013    9.0442 C   0  0  0  0  0  0  0  0  0  0  0  0
   24.9342   13.0792    8.6414 C   0  0  0  0  0  0  0  0  0  0  0  0
   24.1672   11.9408    8.5144 F   0  0  0  0  0  0  0  0  0  0  0  0
   22.8217   13.5076    6.7135 C   0  0  0  0  0  0  0  0  0  0  0  0
   21.8706   14.0786    5.8892 O   0  0  0  0  0  0  0  0  0  0  0  0
   21.3819   15.2359    6.4646 C   0  0  0  0  0  0  0  0  0  0  0  0
   22.5603   15.7236    7.3143 C   0  0  1  0  0  0  0  0  0  0  0  0
   22.1712   16.8728    8.1553 C   0  0  0  0  0  0  0  0  0  0  0  0
   21.9177   16.4922    9.9237 S   0  0  0  0  0  0  0  0  0  0  0  0
  1  2  2  0
  2  3  1  0
  3  4  1  0
  4  5  1  1
  5  6  2  0
  6  7  1  0
  7  8  1  0
  8  9  1  0
  9 10  2  0
  9 11  1  0
 11 12  2  0
 12 13  1  0
 13 14  2  0
 14 15  1  0
 14 16  1  0
 16 17  2  0
  7 18  2  0
 18 19  1  0
 19 20  2  0
 20 21  1  0
  4 22  1  0
 22 23  1  0
 23 24  1  0
 25 24  1  6
 25 26  1  0
 26 27  1  0
 27  2  1  0
 25  4  1  0
 20  5  1  0
 17 11  1  0
M  CHG  1   1   1
M  END
>  <shape_align_shape_tanimoto>  (2) 
0.65316029839029177

>  <shape_align_color_tanimoto>  (2) 
0.1089528132725199

>  <metric>  (2) 
color

>  <metric_score>  (2) 
0.109

>  <template_pid>  (2) 
4X7I

>  <template_shape_score>  (2) 
0.653

>  <template_color_score>  (2) 
0.109

>  <template_combo_score>  (2) 
0.381

$$$$
4X7I_combo_pose
     RDKit          3D

 27 30  0  0  0  0  0  0  0  0999 V2000
   22.6713   16.9680    9.0823 N   0  0  0  0  0  0  0  0  0  0  0  0
   22.6621   15.7892    8.5675 C   0  0  0  0  0  0  0  0  0  0  0  0
   22.9675   14.6018    9.2704 N   0  0  0  0  0  0  0  0  0  0  0  0
   23.4684   13.3896    8.6851 C   0  0  1  0  0  0  0  0  0  0  0  0
   24.9602   13.5369    8.6612 C   0  0  0  0  0  0  0  0  0  0  0  0
   25.5960   14.6718    9.1478 C   0  0  0  0  0  0  0  0  0  0  0  0
   26.9548   14.8413    9.1451 C   0  0  0  0  0  0  0  0  0  0  0  0
   27.6509   15.9678    9.6242 N   0  0  0  0  0  0  0  0  0  0  0  0
   27.0838   17.1226   10.1912 C   0  0  0  0  0  0  0  0  0  0  0  0
   25.8569   17.2801   10.3367 O   0  0  0  0  0  0  0  0  0  0  0  0
   27.9487   18.2135   10.6439 C   0  0  0  0  0  0  0  0  0  0  0  0
   27.4678   19.3669   11.2052 C   0  0  0  0  0  0  0  0  0  0  0  0
   28.2670   20.4020   11.6359 C   0  0  0  0  0  0  0  0  0  0  0  0
   29.6305   20.2606   11.4898 C   0  0  0  0  0  0  0  0  0  0  0  0
   30.4882   21.2168   11.8806 F   0  0  0  0  0  0  0  0  0  0  0  0
   30.1113   19.0984   10.9244 C   0  0  0  0  0  0  0  0  0  0  0  0
   29.2929   18.1121   10.5173 N   0  0  0  0  0  0  0  0  0  0  0  0
   27.7013   13.7936    8.6164 C   0  0  0  0  0  0  0  0  0  0  0  0
   27.0965   12.6631    8.1300 C   0  0  0  0  0  0  0  0  0  0  0  0
   25.7267   12.5172    8.1442 C   0  0  0  0  0  0  0  0  0  0  0  0
   25.2198   11.3685    7.6429 F   0  0  0  0  0  0  0  0  0  0  0  0
   23.0322   12.2598    9.5622 C   0  0  0  0  0  0  0  0  0  0  0  0
   22.9039   11.1380    8.7578 O   0  0  0  0  0  0  0  0  0  0  0  0
   22.5056   11.6077    7.5121 C   0  0  0  0  0  0  0  0  0  0  0  0
   23.0381   13.0097    7.3450 C   0  0  1  0  0  0  0  0  0  0  0  0
   21.8966   13.7848    6.7247 C   0  0  0  0  0  0  0  0  0  0  0  0
   22.2292   15.5827    6.8213 S   0  0  0  0  0  0  0  0  0  0  0  0
  1  2  2  0
  2  3  1  0
  3  4  1  0
  4  5  1  6
  5  6  2  0
  6  7  1  0
  7  8  1  0
  8  9  1  0
  9 10  2  0
  9 11  1  0
 11 12  2  0
 12 13  1  0
 13 14  2  0
 14 15  1  0
 14 16  1  0
 16 17  2  0
  7 18  2  0
 18 19  1  0
 19 20  2  0
 20 21  1  0
  4 22  1  0
 22 23  1  0
 23 24  1  0
 25 24  1  1
 25 26  1  0
 26 27  1  0
 27  2  1  0
 25  4  1  0
 20  5  1  0
 17 11  1  0
M  CHG  1   1   1
M  END
>  <shape_align_shape_tanimoto>  (3) 
0.69968219533057896

>  <shape_align_color_tanimoto>  (3) 
0.070176049658357775

>  <metric>  (3) 
combo

>  <metric_score>  (3) 
0.385

>  <template_pid>  (3) 
4X7I

>  <template_shape_score>  (3) 
0.700

>  <template_color_score>  (3) 
0.070

>  <template_combo_score>  (3) 
0.385

$$$$
