2VPG_shape_pose
     RDKit          3D

 58 57  0  0  0  0  0  0  0  0999 V2000
    6.5635    3.2416    4.2061 C   0  0  0  0  0  0  0  0  0  0  0  0
    5.5502    4.3248    4.5381 C   0  0  2  0  0  0  0  0  0  0  0  0
    6.2450    5.5882    4.3302 N   0  0  0  0  0  0  0  0  0  0  0  0
    5.2456    4.1220    5.9898 C   0  0  0  0  0  0  0  0  0  0  0  0
    6.1052    4.4520    6.8297 O   0  0  0  0  0  0  0  0  0  0  0  0
    3.9892    3.5614    6.4162 N   0  0  0  0  0  0  0  0  0  0  0  0
    3.8084    3.3943    7.8313 C   0  0  1  0  0  0  0  0  0  0  0  0
    3.3134    4.8244    8.2542 C   0  0  0  0  0  0  0  0  0  0  0  0
    2.9925    4.9338    9.6851 C   0  0  0  0  0  0  0  0  0  0  0  0
    4.0667    4.6968   10.6759 C   0  0  0  0  0  0  0  0  0  0  0  0
    5.1222    5.6560   10.5199 N   0  0  0  0  0  0  0  0  0  0  0  0
    4.9675    7.0482   10.8104 C   0  0  0  0  0  0  0  0  0  0  0  0
    3.9805    7.4390   11.5498 N   0  0  0  0  0  0  0  0  0  0  0  0
    5.8711    8.0276   10.3203 N   0  0  0  0  0  0  0  0  0  0  0  0
    6.1729    9.1393   11.1957 C   0  0  0  0  0  0  0  0  0  0  0  0
    6.4962    7.9805    9.0189 C   0  0  0  0  0  0  0  0  0  0  0  0
    2.6970    2.4826    8.2027 C   0  0  0  0  0  0  0  0  0  0  0  0
    2.8676    1.8617    9.3073 O   0  0  0  0  0  0  0  0  0  0  0  0
    1.6027    2.3895    7.3682 N   0  0  0  0  0  0  0  0  0  0  0  0
    0.3742    1.6199    7.4361 C   0  0  2  0  0  0  0  0  0  0  0  0
   -0.6891    2.6251    7.3103 C   0  0  0  0  0  0  0  0  0  0  0  0
   -0.2392    3.8401    7.2945 O   0  0  0  0  0  0  0  0  0  0  0  0
   -2.0740    2.4208    7.2113 N   0  0  0  0  0  0  0  0  0  0  0  0
   -3.0589    3.4879    7.0803 C   0  0  1  0  0  0  0  0  0  0  0  0
   -3.7719    3.8225    8.3362 C   0  0  0  0  0  0  0  0  0  0  0  0
   -4.5250    2.5690    8.8002 C   0  0  0  0  0  0  0  0  0  0  0  0
   -5.2771    2.7600   10.0684 C   0  0  0  0  0  0  0  0  0  0  0  0
   -4.3893    3.1163   11.2361 C   0  0  0  0  0  0  0  0  0  0  0  0
   -3.3987    2.1154   11.5405 N   0  0  0  0  0  0  0  0  0  0  0  0
   -2.0510    2.6339   11.5832 C   0  0  0  0  0  0  0  0  0  0  0  0
   -3.6678    1.5503   12.8769 C   0  0  0  0  0  0  0  0  0  0  0  0
   -2.6243    4.6238    6.2497 C   0  0  0  0  0  0  0  0  0  0  0  0
   -1.6148    4.5635    5.4978 O   0  0  0  0  0  0  0  0  0  0  0  0
   -3.3150    5.8889    6.2338 N   0  0  0  0  0  0  0  0  0  0  0  0
   -2.7407    6.9086    5.3468 C   0  0  1  0  0  0  0  0  0  0  0  0
   -3.8247    7.3662    4.3632 C   0  0  0  0  0  0  0  0  0  0  0  0
   -3.2635    8.4176    3.4549 C   0  0  0  0  0  0  0  0  0  0  0  0
   -2.1252    7.9062    2.6633 C   0  0  0  0  0  0  0  0  0  0  0  0
   -1.2887    8.8371    1.9990 N   0  0  0  0  0  0  0  0  0  0  0  0
   -1.8389    6.6844    2.5284 O   0  0  0  0  0  0  0  0  0  0  0  0
   -2.1922    8.0582    6.0929 C   0  0  0  0  0  0  0  0  0  0  0  0
   -1.4287    8.8397    5.4466 O   0  0  0  0  0  0  0  0  0  0  0  0
   -2.4250    8.3796    7.4470 N   0  0  0  0  0  0  0  0  0  0  0  0
   -1.7398    9.5632    7.9546 C   0  0  2  0  0  0  0  0  0  0  0  0
   -1.4700    9.4957    9.3894 C   0  0  0  0  0  0  0  0  0  0  0  0
   -0.6758   10.3928    9.8589 O   0  0  0  0  0  0  0  0  0  0  0  0
   -1.9762    8.5751   10.3127 N   0  0  0  0  0  0  0  0  0  0  0  0
   -1.6562    8.5580   11.7291 C   0  0  1  0  0  0  0  0  0  0  0  0
   -2.7079    9.2639   12.5533 C   0  0  0  0  0  0  0  0  0  0  0  0
   -1.4928    7.1865   12.2314 C   0  0  0  0  0  0  0  0  0  0  0  0
   -0.9216    6.9448   13.3141 O   0  0  0  0  0  0  0  0  0  0  0  0
   -1.9664    6.0591   11.5264 O   0  0  0  0  0  0  0  0  0  0  0  0
   -2.6072   10.7814    7.6035 C   0  0  1  0  0  0  0  0  0  0  0  0
   -4.0034   10.6891    8.1144 C   0  0  0  0  0  0  0  0  0  0  0  0
   -1.9909   11.9674    8.0729 O   0  0  0  0  0  0  0  0  0  0  0  0
    0.3599    0.8528    8.7532 C   0  0  1  0  0  0  0  0  0  0  0  0
   -0.8622    0.0039    8.9430 C   0  0  0  0  0  0  0  0  0  0  0  0
    1.4580   -0.0375    8.6831 O   0  0  0  0  0  0  0  0  0  0  0  0
  2  1  1  1
  2  3  1  0
  2  4  1  0
  4  5  2  0
  4  6  1  0
  6  7  1  0
  7  8  1  1
  8  9  1  0
  9 10  1  0
 10 11  1  0
 11 12  1  0
 12 13  2  0
 12 14  1  0
 14 15  1  0
 14 16  1  0
  7 17  1  0
 17 18  2  0
 17 19  1  0
 20 19  1  1
 20 21  1  0
 21 22  2  0
 21 23  1  0
 23 24  1  0
 24 25  1  1
 25 26  1  0
 26 27  1  0
 27 28  1  0
 28 29  1  0
 29 30  1  0
 29 31  1  0
 24 32  1  0
 32 33  2  0
 32 34  1  0
 34 35  1  0
 35 36  1  6
 36 37  1  0
 37 38  1  0
 38 39  1  0
 38 40  2  0
 35 41  1  0
 41 42  2  0
 41 43  1  0
 44 43  1  1
 44 45  1  0
 45 46  2  0
 45 47  1  0
 47 48  1  0
 48 49  1  1
 48 50  1  0
 50 51  2  0
 50 52  1  0
 44 53  1  0
 53 54  1  1
 53 55  1  0
 20 56  1  0
 56 57  1  6
 56 58  1  0
M  CHG  4   3   1  13   1  29   1  52  -1
M  END
>  <shape_align_shape_tanimoto>  (1) 
0.28112264645797125

>  <shape_align_color_tanimoto>  (1) 
0.01479762855217976

>  <metric>  (1) 
shape

>  <metric_score>  (1) 
0.281

>  <template_pid>  (1) 
2VPG

>  <template_shape_score>  (1) 
0.281

>  <template_color_score>  (1) 
0.015

>  <template_combo_score>  (1) 
0.148

$$$$
2VPG_color_pose
     RDKit          3D

 58 57  0  0  0  0  0  0  0  0999 V2000
    3.4757   -3.6041   13.8314 C   0  0  0  0  0  0  0  0  0  0  0  0
    3.6579   -2.5286   12.7722 C   0  0  2  0  0  0  0  0  0  0  0  0
    4.2508   -1.3402   13.3086 N   0  0  0  0  0  0  0  0  0  0  0  0
    2.3235   -2.2946   12.1596 C   0  0  0  0  0  0  0  0  0  0  0  0
    1.7550   -3.2939   11.6568 O   0  0  0  0  0  0  0  0  0  0  0  0
    1.7143   -0.9781   12.1465 N   0  0  0  0  0  0  0  0  0  0  0  0
    0.4236   -0.8989   11.5267 C   0  0  1  0  0  0  0  0  0  0  0  0
   -0.6944   -0.7357   12.4954 C   0  0  0  0  0  0  0  0  0  0  0  0
   -0.7744    0.4568   13.3411 C   0  0  0  0  0  0  0  0  0  0  0  0
    0.3396    0.7942   14.2653 C   0  0  0  0  0  0  0  0  0  0  0  0
    0.6736   -0.2069   15.2421 N   0  0  0  0  0  0  0  0  0  0  0  0
   -0.1392   -0.5780   16.3396 C   0  0  0  0  0  0  0  0  0  0  0  0
   -1.1268    0.1643   16.6831 N   0  0  0  0  0  0  0  0  0  0  0  0
    0.2069   -1.7744   17.0264 N   0  0  0  0  0  0  0  0  0  0  0  0
   -0.6974   -2.8849   17.2251 C   0  0  0  0  0  0  0  0  0  0  0  0
    1.5842   -1.8198   17.5407 C   0  0  0  0  0  0  0  0  0  0  0  0
    0.4846    0.2518   10.5646 C   0  0  0  0  0  0  0  0  0  0  0  0
    1.5325    0.9870   10.6533 O   0  0  0  0  0  0  0  0  0  0  0  0
   -0.5369    0.5209    9.6170 N   0  0  0  0  0  0  0  0  0  0  0  0
   -0.3342    1.6889    8.7671 C   0  0  2  0  0  0  0  0  0  0  0  0
   -1.5435    2.1961    8.1307 C   0  0  0  0  0  0  0  0  0  0  0  0
   -2.5883    1.4918    8.1838 O   0  0  0  0  0  0  0  0  0  0  0  0
   -1.5364    3.4678    7.4571 N   0  0  0  0  0  0  0  0  0  0  0  0
   -2.7581    3.8670    6.8168 C   0  0  1  0  0  0  0  0  0  0  0  0
   -3.5684    4.7252    7.7786 C   0  0  0  0  0  0  0  0  0  0  0  0
   -4.8621    5.2183    7.2654 C   0  0  0  0  0  0  0  0  0  0  0  0
   -5.5661    6.0488    8.3478 C   0  0  0  0  0  0  0  0  0  0  0  0
   -5.8302    5.2272    9.5692 C   0  0  0  0  0  0  0  0  0  0  0  0
   -6.5205    5.9657   10.6198 N   0  0  0  0  0  0  0  0  0  0  0  0
   -5.5964    6.3512   11.6978 C   0  0  0  0  0  0  0  0  0  0  0  0
   -7.4792    5.0430   11.2267 C   0  0  0  0  0  0  0  0  0  0  0  0
   -2.4339    4.5262    5.5476 C   0  0  0  0  0  0  0  0  0  0  0  0
   -3.3710    4.5140    4.6608 O   0  0  0  0  0  0  0  0  0  0  0  0
   -1.2146    5.1614    5.2195 N   0  0  0  0  0  0  0  0  0  0  0  0
   -0.9451    5.7820    3.9051 C   0  0  1  0  0  0  0  0  0  0  0  0
   -1.8756    6.9581    3.7445 C   0  0  0  0  0  0  0  0  0  0  0  0
   -1.6936    7.6893    2.4742 C   0  0  0  0  0  0  0  0  0  0  0  0
   -0.4258    8.4390    2.3267 C   0  0  0  0  0  0  0  0  0  0  0  0
    0.1250    8.7469    1.0495 N   0  0  0  0  0  0  0  0  0  0  0  0
    0.1359    8.7925    3.4136 O   0  0  0  0  0  0  0  0  0  0  0  0
    0.4546    6.0232    3.6732 C   0  0  0  0  0  0  0  0  0  0  0  0
    0.8820    6.0670    2.4593 O   0  0  0  0  0  0  0  0  0  0  0  0
    1.4587    6.2269    4.6570 N   0  0  0  0  0  0  0  0  0  0  0  0
    2.8497    6.4415    4.4448 C   0  0  2  0  0  0  0  0  0  0  0  0
    3.7461    5.8764    5.4895 C   0  0  0  0  0  0  0  0  0  0  0  0
    4.9982    5.9377    5.2104 O   0  0  0  0  0  0  0  0  0  0  0  0
    3.3054    5.3185    6.6993 N   0  0  0  0  0  0  0  0  0  0  0  0
    4.2158    4.7762    7.7218 C   0  0  1  0  0  0  0  0  0  0  0  0
    4.2509    5.8937    8.7927 C   0  0  0  0  0  0  0  0  0  0  0  0
    3.6700    3.5798    8.3761 C   0  0  0  0  0  0  0  0  0  0  0  0
    3.0585    3.6544    9.4866 O   0  0  0  0  0  0  0  0  0  0  0  0
    3.7678    2.2816    7.8534 O   0  0  0  0  0  0  0  0  0  0  0  0
    3.1475    7.9543    4.3109 C   0  0  1  0  0  0  0  0  0  0  0  0
    2.6844    8.7455    5.4704 C   0  0  0  0  0  0  0  0  0  0  0  0
    4.5437    8.1052    4.1632 O   0  0  0  0  0  0  0  0  0  0  0  0
    0.5948    1.1304    7.6394 C   0  0  1  0  0  0  0  0  0  0  0  0
   -0.1419   -0.0402    7.0415 C   0  0  0  0  0  0  0  0  0  0  0  0
    0.8979    2.1008    6.7216 O   0  0  0  0  0  0  0  0  0  0  0  0
  2  1  1  1
  2  3  1  0
  2  4  1  0
  4  5  2  0
  4  6  1  0
  6  7  1  0
  7  8  1  1
  8  9  1  0
  9 10  1  0
 10 11  1  0
 11 12  1  0
 12 13  2  0
 12 14  1  0
 14 15  1  0
 14 16  1  0
  7 17  1  0
 17 18  2  0
 17 19  1  0
 20 19  1  1
 20 21  1  0
 21 22  2  0
 21 23  1  0
 23 24  1  0
 24 25  1  1
 25 26  1  0
 26 27  1  0
 27 28  1  0
 28 29  1  0
 29 30  1  0
 29 31  1  0
 24 32  1  0
 32 33  2  0
 32 34  1  0
 34 35  1  0
 35 36  1  1
 36 37  1  0
 37 38  1  0
 38 39  1  0
 38 40  2  0
 35 41  1  0
 41 42  2  0
 41 43  1  0
 44 43  1  1
 44 45  1  0
 45 46  2  0
 45 47  1  0
 47 48  1  0
 48 49  1  1
 48 50  1  0
 50 51  2  0
 50 52  1  0
 44 53  1  0
 53 54  1  1
 53 55  1  0
 20 56  1  0
 56 57  1  6
 56 58  1  0
M  CHG  4   3   1  13   1  29   1  52  -1
M  END
>  <shape_align_shape_tanimoto>  (2) 
0.24318682262317773

>  <shape_align_color_tanimoto>  (2) 
0.038322065131723385

>  <metric>  (2) 
color

>  <metric_score>  (2) 
0.038

>  <template_pid>  (2) 
2VPG

>  <template_shape_score>  (2) 
0.243

>  <template_color_score>  (2) 
0.038

>  <template_combo_score>  (2) 
0.141

$$$$
2VPG_combo_pose
     RDKit          3D

 58 57  0  0  0  0  0  0  0  0999 V2000
   -4.0725   10.3663    5.4788 C   0  0  0  0  0  0  0  0  0  0  0  0
   -3.4919    9.4503    6.5210 C   0  0  2  0  0  0  0  0  0  0  0  0
   -2.4560   10.2016    7.2102 N   0  0  0  0  0  0  0  0  0  0  0  0
   -2.9019    8.2042    5.9389 C   0  0  0  0  0  0  0  0  0  0  0  0
   -1.6434    8.0905    6.0960 O   0  0  0  0  0  0  0  0  0  0  0  0
   -3.6807    7.2448    5.2735 N   0  0  0  0  0  0  0  0  0  0  0  0
   -3.2156    6.0319    4.6639 C   0  0  1  0  0  0  0  0  0  0  0  0
   -2.0046    6.3228    3.8142 C   0  0  0  0  0  0  0  0  0  0  0  0
   -1.4516    5.0992    3.1169 C   0  0  0  0  0  0  0  0  0  0  0  0
   -2.4771    4.4742    2.1960 C   0  0  0  0  0  0  0  0  0  0  0  0
   -1.9718    3.2664    1.5592 N   0  0  0  0  0  0  0  0  0  0  0  0
   -0.9436    3.2424    0.6079 C   0  0  0  0  0  0  0  0  0  0  0  0
   -0.7798    4.2417   -0.1626 N   0  0  0  0  0  0  0  0  0  0  0  0
   -0.1176    2.0708    0.5587 N   0  0  0  0  0  0  0  0  0  0  0  0
    0.0943    1.4622   -0.7626 C   0  0  0  0  0  0  0  0  0  0  0  0
    0.4853    1.5146    1.7592 C   0  0  0  0  0  0  0  0  0  0  0  0
   -3.1133    4.9199    5.5864 C   0  0  0  0  0  0  0  0  0  0  0  0
   -2.5932    3.8340    5.1470 O   0  0  0  0  0  0  0  0  0  0  0  0
   -3.5289    4.8745    6.9471 N   0  0  0  0  0  0  0  0  0  0  0  0
   -3.3359    3.6292    7.6475 C   0  0  2  0  0  0  0  0  0  0  0  0
   -1.9105    3.3409    7.9861 C   0  0  0  0  0  0  0  0  0  0  0  0
   -1.1442    4.3428    8.0481 O   0  0  0  0  0  0  0  0  0  0  0  0
   -1.4575    2.0236    8.2138 N   0  0  0  0  0  0  0  0  0  0  0  0
   -0.1013    1.6489    8.5606 C   0  0  1  0  0  0  0  0  0  0  0  0
    0.1146    0.2036    8.6775 C   0  0  0  0  0  0  0  0  0  0  0  0
   -0.6617   -0.5502    9.6939 C   0  0  0  0  0  0  0  0  0  0  0  0
   -0.4564   -0.1925   11.1143 C   0  0  0  0  0  0  0  0  0  0  0  0
    0.9545   -0.3837   11.6007 C   0  0  0  0  0  0  0  0  0  0  0  0
    1.4075   -1.7545   11.4757 N   0  0  0  0  0  0  0  0  0  0  0  0
    1.5272   -2.4246   12.7607 C   0  0  0  0  0  0  0  0  0  0  0  0
    2.7280   -1.7286   10.8774 C   0  0  0  0  0  0  0  0  0  0  0  0
    0.8410    2.1813    7.4938 C   0  0  0  0  0  0  0  0  0  0  0  0
    0.4291    2.9038    6.5565 O   0  0  0  0  0  0  0  0  0  0  0  0
    2.2301    1.8880    7.5153 N   0  0  0  0  0  0  0  0  0  0  0  0
    3.1788    2.3891    6.5612 C   0  0  1  0  0  0  0  0  0  0  0  0
    4.3717    3.0507    7.0970 C   0  0  0  0  0  0  0  0  0  0  0  0
    4.1312    4.2834    7.8684 C   0  0  0  0  0  0  0  0  0  0  0  0
    3.3702    4.1519    9.0847 C   0  0  0  0  0  0  0  0  0  0  0  0
    2.7249    5.3562    9.5786 N   0  0  0  0  0  0  0  0  0  0  0  0
    3.1774    3.1479    9.7986 O   0  0  0  0  0  0  0  0  0  0  0  0
    3.5333    1.3881    5.5124 C   0  0  0  0  0  0  0  0  0  0  0  0
    2.9959    0.2519    5.5254 O   0  0  0  0  0  0  0  0  0  0  0  0
    4.4596    1.6901    4.4905 N   0  0  0  0  0  0  0  0  0  0  0  0
    4.8076    0.7399    3.4213 C   0  0  2  0  0  0  0  0  0  0  0  0
    6.0241   -0.0334    3.8568 C   0  0  0  0  0  0  0  0  0  0  0  0
    6.5824    0.3808    4.9053 O   0  0  0  0  0  0  0  0  0  0  0  0
    6.5103   -1.1526    3.1452 N   0  0  0  0  0  0  0  0  0  0  0  0
    7.7005   -1.8993    3.5769 C   0  0  1  0  0  0  0  0  0  0  0  0
    7.4279   -3.3849    3.5691 C   0  0  0  0  0  0  0  0  0  0  0  0
    8.8592   -1.6395    2.6753 C   0  0  0  0  0  0  0  0  0  0  0  0
    9.4960   -0.5331    2.6999 O   0  0  0  0  0  0  0  0  0  0  0  0
    9.2996   -2.6039    1.7555 O   0  0  0  0  0  0  0  0  0  0  0  0
    5.0042    1.4783    2.1436 C   0  0  1  0  0  0  0  0  0  0  0  0
    5.1793    0.5226    0.9887 C   0  0  0  0  0  0  0  0  0  0  0  0
    3.8202    2.2008    1.8199 O   0  0  0  0  0  0  0  0  0  0  0  0
   -4.1678    2.4822    7.2502 C   0  0  1  0  0  0  0  0  0  0  0  0
   -5.6378    2.9273    7.4547 C   0  0  0  0  0  0  0  0  0  0  0  0
   -4.0805    2.0050    5.9768 O   0  0  0  0  0  0  0  0  0  0  0  0
  2  1  1  6
  2  3  1  0
  2  4  1  0
  4  5  2  0
  4  6  1  0
  6  7  1  0
  7  8  1  1
  8  9  1  0
  9 10  1  0
 10 11  1  0
 11 12  1  0
 12 13  2  0
 12 14  1  0
 14 15  1  0
 14 16  1  0
  7 17  1  0
 17 18  2  0
 17 19  1  0
 20 19  1  6
 20 21  1  0
 21 22  2  0
 21 23  1  0
 23 24  1  0
 24 25  1  6
 25 26  1  0
 26 27  1  0
 27 28  1  0
 28 29  1  0
 29 30  1  0
 29 31  1  0
 24 32  1  0
 32 33  2  0
 32 34  1  0
 34 35  1  0
 35 36  1  1
 36 37  1  0
 37 38  1  0
 38 39  1  0
 38 40  2  0
 35 41  1  0
 41 42  2  0
 41 43  1  0
 44 43  1  1
 44 45  1  0
 45 46  2  0
 45 47  1  0
 47 48  1  0
 48 49  1  6
 48 50  1  0
 50 51  2  0
 50 52  1  0
 44 53  1  0
 53 54  1  6
 53 55  1  0
 20 56  1  0
 56 57  1  6
 56 58  1  0
M  CHG  4   3   1  13   1  29   1  52  -1
M  END
>  <shape_align_shape_tanimoto>  (3) 
0.27447781383827602

>  <shape_align_color_tanimoto>  (3) 
0.026937702792388094

>  <metric>  (3) 
combo

>  <metric_score>  (3) 
0.151

>  <template_pid>  (3) 
2VPG

>  <template_shape_score>  (3) 
0.274

>  <template_color_score>  (3) 
0.027

>  <template_combo_score>  (3) 
0.151

$$$$
