5IVY_shape_pose
     RDKit          3D

 20 21  0  0  0  0  0  0  0  0999 V2000
  -18.7743   -8.3685   65.3807 O   0  0  0  0  0  0  0  0  0  0  0  0
  -17.6949   -8.9887   65.3494 C   0  0  0  0  0  0  0  0  0  0  0  0
  -16.7396   -8.5777   64.2628 C   0  0  0  0  0  0  0  0  0  0  0  0
  -17.3680   -7.4946   63.4847 C   0  0  0  0  0  0  0  0  0  0  0  0
  -17.1975   -6.1668   63.8254 C   0  0  0  0  0  0  0  0  0  0  0  0
  -17.7890   -5.1482   63.0929 C   0  0  0  0  0  0  0  0  0  0  0  0
  -18.5573   -5.5301   62.0054 C   0  0  0  0  0  0  0  0  0  0  0  0
  -19.3029   -4.2260   61.0838 Cl  0  0  0  0  0  0  0  0  0  0  0  0
  -18.7439   -6.8444   61.6438 C   0  0  0  0  0  0  0  0  0  0  0  0
  -18.1415   -7.8367   62.3933 C   0  0  0  0  0  0  0  0  0  0  0  0
  -17.3215  -10.0264   66.2463 N   0  0  0  0  0  0  0  0  0  0  0  0
  -18.1183  -10.5112   67.3092 C   0  0  0  0  0  0  0  0  0  0  0  0
  -19.3720  -10.0061   67.5836 C   0  0  0  0  0  0  0  0  0  0  0  0
  -20.1463  -10.4705   68.6089 N   0  0  0  0  0  0  0  0  0  0  0  0
  -19.7079  -11.4515   69.3997 C   0  0  0  0  0  0  0  0  0  0  0  0
  -18.4653  -11.9695   69.1468 C   0  0  0  0  0  0  0  0  0  0  0  0
  -17.6392  -11.5204   68.1040 C   0  0  0  0  0  0  0  0  0  0  0  0
  -16.3631  -12.1809   67.9860 C   0  0  0  0  0  0  0  0  0  0  0  0
  -16.0652  -13.1074   68.8098 O   0  0  0  0  0  0  0  0  0  0  0  0
  -15.3741  -11.9305   67.0542 O   0  0  0  0  0  0  0  0  0  0  0  0
  1  2  2  0
  2  3  1  0
  3  4  1  0
  4  5  2  0
  5  6  1  0
  6  7  2  0
  7  8  1  0
  7  9  1  0
  9 10  2  0
  2 11  1  0
 11 12  1  0
 12 13  2  0
 13 14  1  0
 14 15  2  0
 15 16  1  0
 16 17  2  0
 17 18  1  0
 18 19  2  0
 18 20  1  0
 10  4  1  0
 17 12  1  0
M  CHG  1  20  -1
M  END
>  <shape_align_shape_tanimoto>  (1) 
0.76703826489685722

>  <shape_align_color_tanimoto>  (1) 
0.077507367420475579

>  <metric>  (1) 
shape

>  <metric_score>  (1) 
0.767

>  <template_pid>  (1) 
5IVY

>  <template_shape_score>  (1) 
0.767

>  <template_color_score>  (1) 
0.078

>  <template_combo_score>  (1) 
0.422

$$$$
5IVY_color_pose
     RDKit          3D

 20 21  0  0  0  0  0  0  0  0999 V2000
  -17.4775   -8.0911   66.6859 O   0  0  0  0  0  0  0  0  0  0  0  0
  -17.3666   -8.9206   65.7128 C   0  0  0  0  0  0  0  0  0  0  0  0
  -16.5183   -8.5383   64.5842 C   0  0  0  0  0  0  0  0  0  0  0  0
  -17.2779   -7.5466   63.7653 C   0  0  0  0  0  0  0  0  0  0  0  0
  -17.9065   -8.0981   62.6361 C   0  0  0  0  0  0  0  0  0  0  0  0
  -18.6544   -7.3253   61.7807 C   0  0  0  0  0  0  0  0  0  0  0  0
  -18.7598   -5.9844   62.0802 C   0  0  0  0  0  0  0  0  0  0  0  0
  -19.7110   -4.9786   60.9931 Cl  0  0  0  0  0  0  0  0  0  0  0  0
  -18.1387   -5.4404   63.1955 C   0  0  0  0  0  0  0  0  0  0  0  0
  -17.3793   -6.2125   64.0685 C   0  0  0  0  0  0  0  0  0  0  0  0
  -18.0783  -10.1215   65.8351 N   0  0  0  0  0  0  0  0  0  0  0  0
  -18.8516  -10.3679   66.9955 C   0  0  0  0  0  0  0  0  0  0  0  0
  -20.1479   -9.8935   67.1575 C   0  0  0  0  0  0  0  0  0  0  0  0
  -20.8742  -10.1636   68.2722 N   0  0  0  0  0  0  0  0  0  0  0  0
  -20.3632  -10.9176   69.2912 C   0  0  0  0  0  0  0  0  0  0  0  0
  -19.0469  -11.4135   69.1588 C   0  0  0  0  0  0  0  0  0  0  0  0
  -18.3017  -11.1443   68.0300 C   0  0  0  0  0  0  0  0  0  0  0  0
  -16.9508  -11.6440   67.8705 C   0  0  0  0  0  0  0  0  0  0  0  0
  -16.3448  -11.3496   66.8059 O   0  0  0  0  0  0  0  0  0  0  0  0
  -16.2764  -12.4174   68.7925 O   0  0  0  0  0  0  0  0  0  0  0  0
  1  2  2  0
  2  3  1  0
  3  4  1  0
  4  5  2  0
  5  6  1  0
  6  7  2  0
  7  8  1  0
  7  9  1  0
  9 10  2  0
  2 11  1  0
 11 12  1  0
 12 13  2  0
 13 14  1  0
 14 15  2  0
 15 16  1  0
 16 17  2  0
 17 18  1  0
 18 19  2  0
 18 20  1  0
 10  4  1  0
 17 12  1  0
M  CHG  1  20  -1
M  END
>  <shape_align_shape_tanimoto>  (2) 
0.70667237264184779

>  <shape_align_color_tanimoto>  (2) 
0.11769333721393767

>  <metric>  (2) 
color

>  <metric_score>  (2) 
0.118

>  <template_pid>  (2) 
5IVY

>  <template_shape_score>  (2) 
0.707

>  <template_color_score>  (2) 
0.118

>  <template_combo_score>  (2) 
0.412

$$$$
5IVY_combo_pose
     RDKit          3D

 20 21  0  0  0  0  0  0  0  0999 V2000
  -18.1649  -10.2613   64.6154 O   0  0  0  0  0  0  0  0  0  0  0  0
  -17.4898   -9.3886   65.2035 C   0  0  0  0  0  0  0  0  0  0  0  0
  -16.5344   -8.5433   64.4491 C   0  0  0  0  0  0  0  0  0  0  0  0
  -17.3200   -7.6059   63.6099 C   0  0  0  0  0  0  0  0  0  0  0  0
  -17.7447   -7.8712   62.3309 C   0  0  0  0  0  0  0  0  0  0  0  0
  -18.4613   -6.8887   61.6897 C   0  0  0  0  0  0  0  0  0  0  0  0
  -18.7709   -5.6662   62.2599 C   0  0  0  0  0  0  0  0  0  0  0  0
  -19.6674   -4.4167   61.4524 Cl  0  0  0  0  0  0  0  0  0  0  0  0
  -18.3372   -5.3997   63.5590 C   0  0  0  0  0  0  0  0  0  0  0  0
  -17.6219   -6.3775   64.2031 C   0  0  0  0  0  0  0  0  0  0  0  0
  -17.5946   -9.1505   66.6033 N   0  0  0  0  0  0  0  0  0  0  0  0
  -18.5008   -9.9459   67.3572 C   0  0  0  0  0  0  0  0  0  0  0  0
  -19.8414   -9.6417   67.4943 C   0  0  0  0  0  0  0  0  0  0  0  0
  -20.6482  -10.4189   68.2299 N   0  0  0  0  0  0  0  0  0  0  0  0
  -20.1684  -11.5352   68.8652 C   0  0  0  0  0  0  0  0  0  0  0  0
  -18.8165  -11.8840   68.7540 C   0  0  0  0  0  0  0  0  0  0  0  0
  -17.9882  -11.0807   67.9957 C   0  0  0  0  0  0  0  0  0  0  0  0
  -16.5770  -11.4095   67.8603 C   0  0  0  0  0  0  0  0  0  0  0  0
  -15.8384  -10.6686   67.1687 O   0  0  0  0  0  0  0  0  0  0  0  0
  -16.0626  -12.5472   68.5023 O   0  0  0  0  0  0  0  0  0  0  0  0
  1  2  2  0
  2  3  1  0
  3  4  1  0
  4  5  2  0
  5  6  1  0
  6  7  2  0
  7  8  1  0
  7  9  1  0
  9 10  2  0
  2 11  1  0
 11 12  1  0
 12 13  2  0
 13 14  1  0
 14 15  2  0
 15 16  1  0
 16 17  2  0
 17 18  1  0
 18 19  2  0
 18 20  1  0
 10  4  1  0
 17 12  1  0
M  CHG  1  20  -1
M  END
>  <shape_align_shape_tanimoto>  (3) 
0.75122127663757798

>  <shape_align_color_tanimoto>  (3) 
0.11141459315440104

>  <metric>  (3) 
combo

>  <metric_score>  (3) 
0.431

>  <template_pid>  (3) 
5IVY

>  <template_shape_score>  (3) 
0.751

>  <template_color_score>  (3) 
0.111

>  <template_combo_score>  (3) 
0.431

$$$$
