4MK8_shape_pose
     RDKit          3D

 39 43  0  0  0  0  0  0  0  0999 V2000
  -21.9561   -8.6307   25.1074 C   0  0  0  0  0  0  0  0  0  0  0  0
  -22.9579   -7.5447   25.3224 C   0  0  0  0  0  0  0  0  0  0  0  0
  -24.1518   -7.8038   25.9692 C   0  0  0  0  0  0  0  0  0  0  0  0
  -25.1006   -6.8340   26.1876 C   0  0  0  0  0  0  0  0  0  0  0  0
  -26.3983   -7.1257   26.8932 C   0  0  0  0  0  0  0  0  0  0  0  0
  -26.1712   -6.9016   28.3146 N   0  0  0  0  0  0  0  0  0  0  0  0
  -25.7200   -7.9221   29.2580 C   0  0  0  0  0  0  0  0  0  0  0  0
  -25.5377   -9.0762   28.8116 O   0  0  0  0  0  0  0  0  0  0  0  0
  -25.5698   -7.3686   30.5686 C   0  0  0  0  0  0  0  0  0  0  0  0
  -25.1398   -7.9713   31.8678 C   0  0  0  0  0  0  0  0  0  0  0  0
  -25.1151   -7.1624   32.8896 N   0  0  0  0  0  0  0  0  0  0  0  0
  -24.6134   -7.9760   34.2791 S   0  0  0  0  0  0  0  0  0  0  0  0
  -23.3062   -7.4686   34.8258 O   0  0  0  0  0  0  0  0  0  0  0  0
  -25.6641   -8.0201   35.3555 O   0  0  0  0  0  0  0  0  0  0  0  0
  -24.4119   -9.5272   33.4969 C   0  0  0  0  0  0  0  0  0  0  0  0
  -24.7494   -9.3115   32.1727 C   0  0  0  0  0  0  0  0  0  0  0  0
  -24.6387  -10.4655   31.3840 C   0  0  0  0  0  0  0  0  0  0  0  0
  -24.2283  -11.6844   31.9126 C   0  0  0  0  0  0  0  0  0  0  0  0
  -23.9074  -11.8424   33.2235 C   0  0  0  0  0  0  0  0  0  0  0  0
  -24.0127  -10.7020   34.0257 C   0  0  0  0  0  0  0  0  0  0  0  0
  -23.6628  -10.9381   35.4525 C   0  0  0  0  0  0  0  0  0  0  0  0
  -24.4241  -12.0509   35.8820 N   0  0  0  0  0  0  0  0  0  0  0  0
  -26.0735  -11.8276   36.1466 S   0  0  0  0  0  0  0  0  0  0  0  0
  -26.9954  -11.3411   34.7354 C   0  0  0  0  0  0  0  0  0  0  0  0
  -26.3808  -10.8596   37.2534 O   0  0  0  0  0  0  0  0  0  0  0  0
  -26.6418  -13.1710   36.5892 O   0  0  0  0  0  0  0  0  0  0  0  0
  -24.1371  -13.2559   35.1997 C   0  0  0  0  0  0  0  0  0  0  0  0
  -23.4501  -13.0558   33.8962 C   0  0  0  0  0  0  0  0  0  0  0  0
  -25.9100   -6.0806   30.4516 C   0  0  0  0  0  0  0  0  0  0  0  0
  -25.9230   -5.1016   31.4732 O   0  0  0  0  0  0  0  0  0  0  0  0
  -26.3045   -5.7233   29.0784 C   0  0  2  0  0  0  0  0  0  0  0  0
  -27.7516   -5.2160   29.2032 C   0  0  0  0  0  0  0  0  0  0  0  0
  -28.6150   -6.2558   29.8505 C   0  0  0  0  0  0  0  0  0  0  0  0
  -27.7406   -4.0215   30.1679 C   0  0  0  0  0  0  0  0  0  0  0  0
  -28.3207   -4.7265   27.9152 C   0  0  0  0  0  0  0  0  0  0  0  0
  -24.8372   -5.5575   25.7381 C   0  0  0  0  0  0  0  0  0  0  0  0
  -23.6480   -5.2473   25.0807 C   0  0  0  0  0  0  0  0  0  0  0  0
  -22.7155   -6.2434   24.8769 C   0  0  0  0  0  0  0  0  0  0  0  0
  -21.5479   -5.9461   24.2332 F   0  0  0  0  0  0  0  0  0  0  0  0
  1  2  1  0
  2  3  2  0
  3  4  1  0
  4  5  1  0
  5  6  1  0
  6  7  1  0
  7  8  2  0
  7  9  1  0
  9 10  1  0
 10 11  2  0
 11 12  1  0
 12 13  2  0
 12 14  2  0
 12 15  1  0
 15 16  2  0
 16 17  1  0
 17 18  2  0
 18 19  1  0
 19 20  2  0
 20 21  1  0
 21 22  1  0
 22 23  1  0
 23 24  1  0
 23 25  2  0
 23 26  2  0
 22 27  1  0
 27 28  1  0
  9 29  2  0
 29 30  1  0
 29 31  1  0
 31 32  1  1
 32 33  1  0
 32 34  1  0
 32 35  1  0
  4 36  2  0
 36 37  1  0
 37 38  2  0
 38 39  1  0
 38  2  1  0
 31  6  1  0
 16 10  1  0
 28 19  1  0
 20 15  1  0
M  END
>  <shape_align_shape_tanimoto>  (1) 
0.49946940924016942

>  <shape_align_color_tanimoto>  (1) 
0.016531345779784504

>  <metric>  (1) 
shape

>  <metric_score>  (1) 
0.499

>  <template_pid>  (1) 
4MK8

>  <template_shape_score>  (1) 
0.499

>  <template_color_score>  (1) 
0.017

>  <template_combo_score>  (1) 
0.258

$$$$
4MK8_color_pose
     RDKit          3D

 39 43  0  0  0  0  0  0  0  0999 V2000
  -29.5962   -8.1745   37.3630 C   0  0  0  0  0  0  0  0  0  0  0  0
  -28.4640   -9.1264   37.5076 C   0  0  0  0  0  0  0  0  0  0  0  0
  -27.2649   -8.9201   36.8190 C   0  0  0  0  0  0  0  0  0  0  0  0
  -26.1902   -9.8041   36.9421 C   0  0  0  0  0  0  0  0  0  0  0  0
  -24.9200   -9.5643   36.2671 C   0  0  0  0  0  0  0  0  0  0  0  0
  -24.7926   -9.8790   34.8648 N   0  0  0  0  0  0  0  0  0  0  0  0
  -25.1384   -8.8756   33.8691 C   0  0  0  0  0  0  0  0  0  0  0  0
  -25.5993   -7.7552   34.2177 O   0  0  0  0  0  0  0  0  0  0  0  0
  -24.8673   -9.3791   32.5134 C   0  0  0  0  0  0  0  0  0  0  0  0
  -25.1442   -8.4895   31.3406 C   0  0  0  0  0  0  0  0  0  0  0  0
  -25.5916   -7.3025   31.6244 N   0  0  0  0  0  0  0  0  0  0  0  0
  -25.8581   -6.4123   30.2084 S   0  0  0  0  0  0  0  0  0  0  0  0
  -27.2942   -6.0297   29.9953 O   0  0  0  0  0  0  0  0  0  0  0  0
  -24.9569   -5.2156   30.0859 O   0  0  0  0  0  0  0  0  0  0  0  0
  -25.3652   -7.6880   29.1172 C   0  0  0  0  0  0  0  0  0  0  0  0
  -25.0059   -8.7402   29.9360 C   0  0  0  0  0  0  0  0  0  0  0  0
  -24.5804   -9.8689   29.2175 C   0  0  0  0  0  0  0  0  0  0  0  0
  -24.5427   -9.8749   27.8279 C   0  0  0  0  0  0  0  0  0  0  0  0
  -24.9160   -8.7886   27.0808 C   0  0  0  0  0  0  0  0  0  0  0  0
  -25.3349   -7.6761   27.7604 C   0  0  0  0  0  0  0  0  0  0  0  0
  -25.7551   -6.4602   27.0146 C   0  0  0  0  0  0  0  0  0  0  0  0
  -25.1151   -6.4598   25.7351 N   0  0  0  0  0  0  0  0  0  0  0  0
  -23.4866   -5.9709   25.7825 S   0  0  0  0  0  0  0  0  0  0  0  0
  -23.4246   -4.2827   26.3904 C   0  0  0  0  0  0  0  0  0  0  0  0
  -22.8138   -5.9972   24.4641 O   0  0  0  0  0  0  0  0  0  0  0  0
  -22.7639   -6.8261   26.8116 O   0  0  0  0  0  0  0  0  0  0  0  0
  -25.3817   -7.6447   24.9803 C   0  0  0  0  0  0  0  0  0  0  0  0
  -24.8436   -8.8918   25.6030 C   0  0  0  0  0  0  0  0  0  0  0  0
  -24.4082  -10.5556   32.6508 C   0  0  0  0  0  0  0  0  0  0  0  0
  -23.9929  -11.4647   31.7120 O   0  0  0  0  0  0  0  0  0  0  0  0
  -24.3280  -10.9805   34.1155 C   0  0  2  0  0  0  0  0  0  0  0  0
  -25.0417  -12.2818   34.1886 C   0  0  0  0  0  0  0  0  0  0  0  0
  -25.0817  -12.9315   35.5393 C   0  0  0  0  0  0  0  0  0  0  0  0
  -26.4712  -12.0143   33.6799 C   0  0  0  0  0  0  0  0  0  0  0  0
  -24.4770  -13.3087   33.2176 C   0  0  0  0  0  0  0  0  0  0  0  0
  -26.4246  -10.8790   37.7953 C   0  0  0  0  0  0  0  0  0  0  0  0
  -27.6041  -11.0796   38.4709 C   0  0  0  0  0  0  0  0  0  0  0  0
  -28.6529  -10.2051   38.3412 C   0  0  0  0  0  0  0  0  0  0  0  0
  -29.8116  -10.3936   38.9984 F   0  0  0  0  0  0  0  0  0  0  0  0
  1  2  1  0
  2  3  2  0
  3  4  1  0
  4  5  1  0
  5  6  1  0
  6  7  1  0
  7  8  2  0
  7  9  1  0
  9 10  1  0
 10 11  2  0
 11 12  1  0
 12 13  2  0
 12 14  2  0
 12 15  1  0
 15 16  2  0
 16 17  1  0
 17 18  2  0
 18 19  1  0
 19 20  2  0
 20 21  1  0
 21 22  1  0
 22 23  1  0
 23 24  1  0
 23 25  2  0
 23 26  2  0
 22 27  1  0
 27 28  1  0
  9 29  2  0
 29 30  1  0
 29 31  1  0
 31 32  1  6
 32 33  1  0
 32 34  1  0
 32 35  1  0
  4 36  2  0
 36 37  1  0
 37 38  2  0
 38 39  1  0
 38  2  1  0
 31  6  1  0
 16 10  1  0
 28 19  1  0
 20 15  1  0
M  END
>  <shape_align_shape_tanimoto>  (2) 
0.43973740666897049

>  <shape_align_color_tanimoto>  (2) 
0.11488698311738851

>  <metric>  (2) 
color

>  <metric_score>  (2) 
0.115

>  <template_pid>  (2) 
4MK8

>  <template_shape_score>  (2) 
0.440

>  <template_color_score>  (2) 
0.115

>  <template_combo_score>  (2) 
0.277

$$$$
4MK8_combo_pose
     RDKit          3D

 39 43  0  0  0  0  0  0  0  0999 V2000
  -29.5962   -8.1745   37.3630 C   0  0  0  0  0  0  0  0  0  0  0  0
  -28.4640   -9.1264   37.5076 C   0  0  0  0  0  0  0  0  0  0  0  0
  -27.2649   -8.9201   36.8190 C   0  0  0  0  0  0  0  0  0  0  0  0
  -26.1902   -9.8041   36.9421 C   0  0  0  0  0  0  0  0  0  0  0  0
  -24.9200   -9.5643   36.2671 C   0  0  0  0  0  0  0  0  0  0  0  0
  -24.7926   -9.8790   34.8648 N   0  0  0  0  0  0  0  0  0  0  0  0
  -25.1384   -8.8756   33.8691 C   0  0  0  0  0  0  0  0  0  0  0  0
  -25.5993   -7.7552   34.2177 O   0  0  0  0  0  0  0  0  0  0  0  0
  -24.8673   -9.3791   32.5134 C   0  0  0  0  0  0  0  0  0  0  0  0
  -25.1442   -8.4895   31.3406 C   0  0  0  0  0  0  0  0  0  0  0  0
  -25.5916   -7.3025   31.6244 N   0  0  0  0  0  0  0  0  0  0  0  0
  -25.8581   -6.4123   30.2084 S   0  0  0  0  0  0  0  0  0  0  0  0
  -27.2942   -6.0297   29.9953 O   0  0  0  0  0  0  0  0  0  0  0  0
  -24.9569   -5.2156   30.0859 O   0  0  0  0  0  0  0  0  0  0  0  0
  -25.3652   -7.6880   29.1172 C   0  0  0  0  0  0  0  0  0  0  0  0
  -25.0059   -8.7402   29.9360 C   0  0  0  0  0  0  0  0  0  0  0  0
  -24.5804   -9.8689   29.2175 C   0  0  0  0  0  0  0  0  0  0  0  0
  -24.5427   -9.8749   27.8279 C   0  0  0  0  0  0  0  0  0  0  0  0
  -24.9160   -8.7886   27.0808 C   0  0  0  0  0  0  0  0  0  0  0  0
  -25.3349   -7.6761   27.7604 C   0  0  0  0  0  0  0  0  0  0  0  0
  -25.7551   -6.4602   27.0146 C   0  0  0  0  0  0  0  0  0  0  0  0
  -25.1151   -6.4598   25.7351 N   0  0  0  0  0  0  0  0  0  0  0  0
  -23.4866   -5.9709   25.7825 S   0  0  0  0  0  0  0  0  0  0  0  0
  -23.4246   -4.2827   26.3904 C   0  0  0  0  0  0  0  0  0  0  0  0
  -22.8138   -5.9972   24.4641 O   0  0  0  0  0  0  0  0  0  0  0  0
  -22.7639   -6.8261   26.8116 O   0  0  0  0  0  0  0  0  0  0  0  0
  -25.3817   -7.6447   24.9803 C   0  0  0  0  0  0  0  0  0  0  0  0
  -24.8436   -8.8918   25.6030 C   0  0  0  0  0  0  0  0  0  0  0  0
  -24.4082  -10.5556   32.6508 C   0  0  0  0  0  0  0  0  0  0  0  0
  -23.9929  -11.4647   31.7120 O   0  0  0  0  0  0  0  0  0  0  0  0
  -24.3280  -10.9805   34.1155 C   0  0  2  0  0  0  0  0  0  0  0  0
  -25.0417  -12.2818   34.1886 C   0  0  0  0  0  0  0  0  0  0  0  0
  -25.0817  -12.9315   35.5393 C   0  0  0  0  0  0  0  0  0  0  0  0
  -26.4712  -12.0143   33.6799 C   0  0  0  0  0  0  0  0  0  0  0  0
  -24.4770  -13.3087   33.2176 C   0  0  0  0  0  0  0  0  0  0  0  0
  -26.4246  -10.8790   37.7953 C   0  0  0  0  0  0  0  0  0  0  0  0
  -27.6041  -11.0796   38.4709 C   0  0  0  0  0  0  0  0  0  0  0  0
  -28.6529  -10.2051   38.3412 C   0  0  0  0  0  0  0  0  0  0  0  0
  -29.8116  -10.3936   38.9984 F   0  0  0  0  0  0  0  0  0  0  0  0
  1  2  1  0
  2  3  2  0
  3  4  1  0
  4  5  1  0
  5  6  1  0
  6  7  1  0
  7  8  2  0
  7  9  1  0
  9 10  1  0
 10 11  2  0
 11 12  1  0
 12 13  2  0
 12 14  2  0
 12 15  1  0
 15 16  2  0
 16 17  1  0
 17 18  2  0
 18 19  1  0
 19 20  2  0
 20 21  1  0
 21 22  1  0
 22 23  1  0
 23 24  1  0
 23 25  2  0
 23 26  2  0
 22 27  1  0
 27 28  1  0
  9 29  2  0
 29 30  1  0
 29 31  1  0
 31 32  1  6
 32 33  1  0
 32 34  1  0
 32 35  1  0
  4 36  2  0
 36 37  1  0
 37 38  2  0
 38 39  1  0
 38  2  1  0
 31  6  1  0
 16 10  1  0
 28 19  1  0
 20 15  1  0
M  END
>  <shape_align_shape_tanimoto>  (3) 
0.43973740666897049

>  <shape_align_color_tanimoto>  (3) 
0.11488698311738851

>  <metric>  (3) 
combo

>  <metric_score>  (3) 
0.277

>  <template_pid>  (3) 
4MK8

>  <template_shape_score>  (3) 
0.440

>  <template_color_score>  (3) 
0.115

>  <template_combo_score>  (3) 
0.277

$$$$
