1OLX_shape_pose
     RDKit          3D

 26 27  0  0  0  0  0  0  0  0999 V2000
   38.3057   22.9524   28.1855 C   0  0  0  0  0  0  0  0  0  0  0  0
   39.2241   23.9553   27.5721 C   0  0  0  0  0  0  0  0  0  0  0  0
   40.4244   24.1719   28.1287 N   0  0  0  0  0  0  0  0  0  0  0  0
   41.3089   25.0480   27.6286 C   0  0  0  0  0  0  0  0  0  0  0  0
   40.9802   25.7758   26.4756 C   0  0  0  0  0  0  0  0  0  0  0  0
   41.9714   26.7229   25.9374 C   0  0  0  0  0  0  0  0  0  0  0  0
   43.2201   26.6536   26.7428 N   0  0  0  0  0  0  0  0  0  0  0  0
   43.3479   27.4733   27.8099 C   0  0  0  0  0  0  0  0  0  0  0  0
   44.9742   27.0814   28.5139 S   0  0  0  0  0  0  0  0  0  0  0  0
   45.3085   25.8239   27.2596 C   0  0  0  0  0  0  0  0  0  0  0  0
   46.4677   24.9912   27.1158 C   0  0  0  0  0  0  0  0  0  0  0  0
   47.2764   24.9354   28.3926 C   0  0  0  0  0  0  0  0  0  0  0  0
   46.5297   24.4550   29.4610 O   0  0  0  0  0  0  0  0  0  0  0  0
   46.9728   22.9343   30.0004 P   0  0  2  0  0  5  0  0  0  0  0  0
   47.7257   22.1334   28.9612 O   0  0  0  0  0  0  0  0  0  0  0  0
   45.5081   22.0910   30.2909 O   0  0  0  0  0  0  0  0  0  0  0  0
   47.8616   22.9153   31.4217 O   0  0  0  0  0  0  0  0  0  0  0  0
   46.8292   22.5467   32.7052 P   0  0  0  0  0  0  0  0  0  0  0  0
   47.5325   22.7725   34.0327 O   0  0  0  0  0  0  0  0  0  0  0  0
   45.4455   23.5232   32.6769 O   0  0  0  0  0  0  0  0  0  0  0  0
   46.2984   20.9469   32.6646 O   0  0  0  0  0  0  0  0  0  0  0  0
   44.1868   25.8357   26.4650 C   0  0  0  0  0  0  0  0  0  0  0  0
   44.1087   24.8841   25.2692 C   0  0  0  0  0  0  0  0  0  0  0  0
   39.7551   25.5292   25.9402 C   0  0  0  0  0  0  0  0  0  0  0  0
   39.3647   26.2382   24.7769 N   0  0  0  0  0  0  0  0  0  0  0  0
   38.8832   24.6507   26.4514 N   0  0  0  0  0  0  0  0  0  0  0  0
  1  2  1  0
  2  3  2  0
  3  4  1  0
  4  5  2  0
  5  6  1  0
  6  7  1  0
  7  8  2  0
  8  9  1  0
  9 10  1  0
 10 11  1  0
 11 12  1  0
 12 13  1  0
 13 14  1  0
 14 15  2  0
 14 16  1  1
 14 17  1  0
 17 18  1  0
 18 19  2  0
 18 20  1  0
 18 21  1  0
 10 22  2  0
 22 23  1  0
  5 24  1  0
 24 25  1  0
 24 26  2  0
 26  2  1  0
 22  7  1  0
M  CHG  1   7   1
M  END
>  <shape_align_shape_tanimoto>  (1) 
0.6940129468959787

>  <shape_align_color_tanimoto>  (1) 
0.059717024257399949

>  <metric>  (1) 
shape

>  <metric_score>  (1) 
0.694

>  <template_pid>  (1) 
1OLX

>  <template_shape_score>  (1) 
0.694

>  <template_color_score>  (1) 
0.060

>  <template_combo_score>  (1) 
0.377

$$$$
1OLX_color_pose
     RDKit          3D

 26 27  0  0  0  0  0  0  0  0999 V2000
   39.1335   22.3707   28.9699 C   0  0  0  0  0  0  0  0  0  0  0  0
   39.8415   23.4595   28.2421 C   0  0  0  0  0  0  0  0  0  0  0  0
   41.0506   23.8725   28.6540 N   0  0  0  0  0  0  0  0  0  0  0  0
   41.6921   24.8593   27.9943 C   0  0  0  0  0  0  0  0  0  0  0  0
   41.1321   25.4741   26.8816 C   0  0  0  0  0  0  0  0  0  0  0  0
   41.9045   26.5362   26.2322 C   0  0  0  0  0  0  0  0  0  0  0  0
   43.2034   26.7699   26.9101 N   0  0  0  0  0  0  0  0  0  0  0  0
   43.2382   27.6884   27.9086 C   0  0  0  0  0  0  0  0  0  0  0  0
   44.9623   27.7160   28.5068 S   0  0  0  0  0  0  0  0  0  0  0  0
   45.4521   26.4395   27.2967 C   0  0  0  0  0  0  0  0  0  0  0  0
   46.8080   25.8946   27.1593 C   0  0  0  0  0  0  0  0  0  0  0  0
   46.9416   24.5088   27.7558 C   0  0  0  0  0  0  0  0  0  0  0  0
   46.6410   24.5178   29.1162 O   0  0  0  0  0  0  0  0  0  0  0  0
   46.7730   22.9963   29.8251 P   0  0  2  0  0  5  0  0  0  0  0  0
   47.8722   23.0505   30.8640 O   0  0  0  0  0  0  0  0  0  0  0  0
   47.1853   21.8839   28.6043 O   0  0  0  0  0  0  0  0  0  0  0  0
   45.3099   22.4828   30.4945 O   0  0  0  0  0  0  0  0  0  0  0  0
   44.7485   23.5545   31.6691 P   0  0  0  0  0  0  0  0  0  0  0  0
   43.2448   23.6252   31.5205 O   0  0  0  0  0  0  0  0  0  0  0  0
   45.3237   25.1283   31.3845 O   0  0  0  0  0  0  0  0  0  0  0  0
   45.1070   23.0140   33.2113 O   0  0  0  0  0  0  0  0  0  0  0  0
   44.3076   26.1526   26.6110 C   0  0  0  0  0  0  0  0  0  0  0  0
   44.3665   25.0959   25.5034 C   0  0  0  0  0  0  0  0  0  0  0  0
   39.9000   25.0388   26.4784 C   0  0  0  0  0  0  0  0  0  0  0  0
   39.3257   25.6739   25.3320 N   0  0  0  0  0  0  0  0  0  0  0  0
   39.3042   24.0681   27.1529 N   0  0  0  0  0  0  0  0  0  0  0  0
  1  2  1  0
  2  3  2  0
  3  4  1  0
  4  5  2  0
  5  6  1  0
  6  7  1  0
  7  8  2  0
  8  9  1  0
  9 10  1  0
 10 11  1  0
 11 12  1  0
 12 13  1  0
 13 14  1  0
 14 15  2  0
 14 16  1  6
 14 17  1  0
 17 18  1  0
 18 19  2  0
 18 20  1  0
 18 21  1  0
 10 22  2  0
 22 23  1  0
  5 24  1  0
 24 25  1  0
 24 26  2  0
 26  2  1  0
 22  7  1  0
M  CHG  1   7   1
M  END
>  <shape_align_shape_tanimoto>  (2) 
0.69309498635113376

>  <shape_align_color_tanimoto>  (2) 
0.10603047695544335

>  <metric>  (2) 
color

>  <metric_score>  (2) 
0.106

>  <template_pid>  (2) 
1OLX

>  <template_shape_score>  (2) 
0.693

>  <template_color_score>  (2) 
0.106

>  <template_combo_score>  (2) 
0.400

$$$$
1OLX_combo_pose
     RDKit          3D

 26 27  0  0  0  0  0  0  0  0999 V2000
   39.1335   22.3707   28.9699 C   0  0  0  0  0  0  0  0  0  0  0  0
   39.8415   23.4595   28.2421 C   0  0  0  0  0  0  0  0  0  0  0  0
   41.0506   23.8725   28.6540 N   0  0  0  0  0  0  0  0  0  0  0  0
   41.6921   24.8593   27.9943 C   0  0  0  0  0  0  0  0  0  0  0  0
   41.1321   25.4741   26.8816 C   0  0  0  0  0  0  0  0  0  0  0  0
   41.9045   26.5362   26.2322 C   0  0  0  0  0  0  0  0  0  0  0  0
   43.2034   26.7699   26.9101 N   0  0  0  0  0  0  0  0  0  0  0  0
   43.2382   27.6884   27.9086 C   0  0  0  0  0  0  0  0  0  0  0  0
   44.9623   27.7160   28.5068 S   0  0  0  0  0  0  0  0  0  0  0  0
   45.4521   26.4395   27.2967 C   0  0  0  0  0  0  0  0  0  0  0  0
   46.8080   25.8946   27.1593 C   0  0  0  0  0  0  0  0  0  0  0  0
   46.9416   24.5088   27.7558 C   0  0  0  0  0  0  0  0  0  0  0  0
   46.6410   24.5178   29.1162 O   0  0  0  0  0  0  0  0  0  0  0  0
   46.7730   22.9963   29.8251 P   0  0  2  0  0  5  0  0  0  0  0  0
   47.8722   23.0505   30.8640 O   0  0  0  0  0  0  0  0  0  0  0  0
   47.1853   21.8839   28.6043 O   0  0  0  0  0  0  0  0  0  0  0  0
   45.3099   22.4828   30.4945 O   0  0  0  0  0  0  0  0  0  0  0  0
   44.7485   23.5545   31.6691 P   0  0  0  0  0  0  0  0  0  0  0  0
   43.2448   23.6252   31.5205 O   0  0  0  0  0  0  0  0  0  0  0  0
   45.3237   25.1283   31.3845 O   0  0  0  0  0  0  0  0  0  0  0  0
   45.1070   23.0140   33.2113 O   0  0  0  0  0  0  0  0  0  0  0  0
   44.3076   26.1526   26.6110 C   0  0  0  0  0  0  0  0  0  0  0  0
   44.3665   25.0959   25.5034 C   0  0  0  0  0  0  0  0  0  0  0  0
   39.9000   25.0388   26.4784 C   0  0  0  0  0  0  0  0  0  0  0  0
   39.3257   25.6739   25.3320 N   0  0  0  0  0  0  0  0  0  0  0  0
   39.3042   24.0681   27.1529 N   0  0  0  0  0  0  0  0  0  0  0  0
  1  2  1  0
  2  3  2  0
  3  4  1  0
  4  5  2  0
  5  6  1  0
  6  7  1  0
  7  8  2  0
  8  9  1  0
  9 10  1  0
 10 11  1  0
 11 12  1  0
 12 13  1  0
 13 14  1  0
 14 15  2  0
 14 16  1  6
 14 17  1  0
 17 18  1  0
 18 19  2  0
 18 20  1  0
 18 21  1  0
 10 22  2  0
 22 23  1  0
  5 24  1  0
 24 25  1  0
 24 26  2  0
 26  2  1  0
 22  7  1  0
M  CHG  1   7   1
M  END
>  <shape_align_shape_tanimoto>  (3) 
0.69309498635113376

>  <shape_align_color_tanimoto>  (3) 
0.10603047695544335

>  <metric>  (3) 
combo

>  <metric_score>  (3) 
0.400

>  <template_pid>  (3) 
1OLX

>  <template_shape_score>  (3) 
0.693

>  <template_color_score>  (3) 
0.106

>  <template_combo_score>  (3) 
0.400

$$$$
