2A5C_shape_pose
     RDKit          3D

 19 21  0  0  0  0  0  0  0  0999 V2000
   42.5075    8.8685   -7.8167 N   0  0  0  0  0  0  0  0  0  0  0  0
   41.9273    7.5801   -7.6279 C   0  0  0  0  0  0  0  0  0  0  0  0
   42.2391    6.5304   -8.4117 N   0  0  0  0  0  0  0  0  0  0  0  0
   41.6961    5.3094   -8.2410 C   0  0  0  0  0  0  0  0  0  0  0  0
   40.8000    5.0997   -7.2521 N   0  0  0  0  0  0  0  0  0  0  0  0
   40.4347    6.0889   -6.4279 C   0  0  0  0  0  0  0  0  0  0  0  0
   41.0012    7.3384   -6.6156 C   0  0  0  0  0  0  0  0  0  0  0  0
   40.4798    8.1536   -5.6730 N   0  0  0  0  0  0  0  0  0  0  0  0
   39.6213    7.4329   -4.9292 C   0  0  0  0  0  0  0  0  0  0  0  0
   38.9506    7.8783   -3.9530 O   0  0  0  0  0  0  0  0  0  0  0  0
   39.5928    6.1570   -5.3950 N   0  0  0  0  0  0  0  0  0  0  0  0
   38.8166    5.0710   -4.8925 C   0  0  2  0  0  0  0  0  0  0  0  0
   38.3548    5.2609   -3.4533 C   0  0  0  0  0  0  0  0  0  0  0  0
   37.7590    3.8627   -3.2364 C   0  0  1  0  0  0  0  0  0  0  0  0
   36.4221    3.8528   -3.6071 O   0  0  0  0  0  0  0  0  0  0  0  0
   38.5227    3.0555   -4.2807 C   0  0  2  0  0  0  0  0  0  0  0  0
   39.0151    1.8113   -3.6001 C   0  0  0  0  0  0  0  0  0  0  0  0
   39.8075    1.0004   -4.3726 O   0  0  0  0  0  0  0  0  0  0  0  0
   39.5590    3.8834   -4.7125 O   0  0  0  0  0  0  0  0  0  0  0  0
  1  2  1  0
  2  3  2  0
  3  4  1  0
  4  5  2  0
  5  6  1  0
  6  7  2  0
  7  8  1  0
  8  9  1  0
  9 10  2  0
  9 11  1  0
 12 11  1  1
 12 13  1  0
 13 14  1  0
 14 15  1  6
 14 16  1  0
 16 17  1  1
 17 18  1  0
 16 19  1  0
  7  2  1  0
 19 12  1  0
 11  6  1  0
M  END
>  <shape_align_shape_tanimoto>  (1) 
0.61735785878600058

>  <shape_align_color_tanimoto>  (1) 
0.15019149390648828

>  <metric>  (1) 
shape

>  <metric_score>  (1) 
0.617

>  <template_pid>  (1) 
2A5C

>  <template_shape_score>  (1) 
0.617

>  <template_color_score>  (1) 
0.150

>  <template_combo_score>  (1) 
0.384

$$$$
2A5C_color_pose
     RDKit          3D

 19 21  0  0  0  0  0  0  0  0999 V2000
   42.5527    8.8368   -8.1409 N   0  0  0  0  0  0  0  0  0  0  0  0
   42.0286    7.5550   -7.7703 C   0  0  0  0  0  0  0  0  0  0  0  0
   42.4659    6.4500   -8.3798 N   0  0  0  0  0  0  0  0  0  0  0  0
   41.9652    5.2425   -8.0234 C   0  0  0  0  0  0  0  0  0  0  0  0
   41.0304    5.1088   -7.0654 N   0  0  0  0  0  0  0  0  0  0  0  0
   40.5541    6.1759   -6.4205 C   0  0  0  0  0  0  0  0  0  0  0  0
   41.0700    7.4114   -6.7888 C   0  0  0  0  0  0  0  0  0  0  0  0
   40.4797    8.3408   -6.0438 N   0  0  0  0  0  0  0  0  0  0  0  0
   39.6210    7.6898   -5.2367 C   0  0  0  0  0  0  0  0  0  0  0  0
   38.8874    8.2976   -4.3864 O   0  0  0  0  0  0  0  0  0  0  0  0
   39.6558    6.3734   -5.4548 N   0  0  0  0  0  0  0  0  0  0  0  0
   38.8734    5.4025   -4.7716 C   0  0  2  0  0  0  0  0  0  0  0  0
   39.3619    5.0685   -3.3763 C   0  0  0  0  0  0  0  0  0  0  0  0
   38.3820    3.9200   -3.0966 C   0  0  1  0  0  0  0  0  0  0  0  0
   37.1560    4.5211   -2.7858 O   0  0  0  0  0  0  0  0  0  0  0  0
   38.2613    3.3146   -4.4543 C   0  0  2  0  0  0  0  0  0  0  0  0
   38.7863    1.8862   -4.4725 C   0  0  0  0  0  0  0  0  0  0  0  0
   38.0395    1.1625   -3.5199 O   0  0  0  0  0  0  0  0  0  0  0  0
   38.9172    4.1424   -5.3555 O   0  0  0  0  0  0  0  0  0  0  0  0
  1  2  1  0
  2  3  2  0
  3  4  1  0
  4  5  2  0
  5  6  1  0
  6  7  2  0
  7  8  1  0
  8  9  1  0
  9 10  2  0
  9 11  1  0
 12 11  1  6
 12 13  1  0
 13 14  1  0
 14 15  1  6
 14 16  1  0
 16 17  1  1
 17 18  1  0
 16 19  1  0
  7  2  1  0
 19 12  1  0
 11  6  1  0
M  END
>  <shape_align_shape_tanimoto>  (2) 
0.59806338767468548

>  <shape_align_color_tanimoto>  (2) 
0.19079770027932177

>  <metric>  (2) 
color

>  <metric_score>  (2) 
0.191

>  <template_pid>  (2) 
2A5C

>  <template_shape_score>  (2) 
0.598

>  <template_color_score>  (2) 
0.191

>  <template_combo_score>  (2) 
0.394

$$$$
2A5C_combo_pose
     RDKit          3D

 19 21  0  0  0  0  0  0  0  0999 V2000
   42.5527    8.8368   -8.1409 N   0  0  0  0  0  0  0  0  0  0  0  0
   42.0286    7.5550   -7.7703 C   0  0  0  0  0  0  0  0  0  0  0  0
   42.4659    6.4500   -8.3798 N   0  0  0  0  0  0  0  0  0  0  0  0
   41.9652    5.2425   -8.0234 C   0  0  0  0  0  0  0  0  0  0  0  0
   41.0304    5.1088   -7.0654 N   0  0  0  0  0  0  0  0  0  0  0  0
   40.5541    6.1759   -6.4205 C   0  0  0  0  0  0  0  0  0  0  0  0
   41.0700    7.4114   -6.7888 C   0  0  0  0  0  0  0  0  0  0  0  0
   40.4797    8.3408   -6.0438 N   0  0  0  0  0  0  0  0  0  0  0  0
   39.6210    7.6898   -5.2367 C   0  0  0  0  0  0  0  0  0  0  0  0
   38.8874    8.2976   -4.3864 O   0  0  0  0  0  0  0  0  0  0  0  0
   39.6558    6.3734   -5.4548 N   0  0  0  0  0  0  0  0  0  0  0  0
   38.8734    5.4025   -4.7716 C   0  0  2  0  0  0  0  0  0  0  0  0
   39.3619    5.0685   -3.3763 C   0  0  0  0  0  0  0  0  0  0  0  0
   38.3820    3.9200   -3.0966 C   0  0  1  0  0  0  0  0  0  0  0  0
   37.1560    4.5211   -2.7858 O   0  0  0  0  0  0  0  0  0  0  0  0
   38.2613    3.3146   -4.4543 C   0  0  2  0  0  0  0  0  0  0  0  0
   38.7863    1.8862   -4.4725 C   0  0  0  0  0  0  0  0  0  0  0  0
   38.0395    1.1625   -3.5199 O   0  0  0  0  0  0  0  0  0  0  0  0
   38.9172    4.1424   -5.3555 O   0  0  0  0  0  0  0  0  0  0  0  0
  1  2  1  0
  2  3  2  0
  3  4  1  0
  4  5  2  0
  5  6  1  0
  6  7  2  0
  7  8  1  0
  8  9  1  0
  9 10  2  0
  9 11  1  0
 12 11  1  6
 12 13  1  0
 13 14  1  0
 14 15  1  6
 14 16  1  0
 16 17  1  1
 17 18  1  0
 16 19  1  0
  7  2  1  0
 19 12  1  0
 11  6  1  0
M  END
>  <shape_align_shape_tanimoto>  (3) 
0.59806338767468548

>  <shape_align_color_tanimoto>  (3) 
0.19079770027932177

>  <metric>  (3) 
combo

>  <metric_score>  (3) 
0.394

>  <template_pid>  (3) 
2A5C

>  <template_shape_score>  (3) 
0.598

>  <template_color_score>  (3) 
0.191

>  <template_combo_score>  (3) 
0.394

$$$$
