6HLE_shape_pose
     RDKit          3D

 60 61  0  0  0  0  0  0  0  0999 V2000
  -47.7756  160.1040   80.0723 N   0  0  0  0  0  0  0  0  0  0  0  0
  -47.1341  161.2589   80.6332 C   0  0  0  0  0  0  0  0  0  0  0  0
  -46.5968  162.1630   79.8745 N   0  0  0  0  0  0  0  0  0  0  0  0
  -47.1095  161.3453   82.0402 N   0  0  0  0  0  0  0  0  0  0  0  0
  -46.5237  162.3774   82.8223 C   0  0  0  0  0  0  0  0  0  0  0  0
  -45.0456  162.5333   82.7992 C   0  0  0  0  0  0  0  0  0  0  0  0
  -44.5923  163.6352   83.7637 C   0  0  0  0  0  0  0  0  0  0  0  0
  -43.1392  163.8385   83.6912 C   0  0  2  0  0  0  0  0  0  0  0  0
  -42.6452  164.2912   82.4035 N   0  0  0  0  0  0  0  0  0  0  0  0
  -41.7119  165.3896   82.2585 C   0  0  0  0  0  0  0  0  0  0  0  0
  -41.4833  166.0159   83.2792 O   0  0  0  0  0  0  0  0  0  0  0  0
  -41.1914  165.5695   80.8997 C   0  0  0  0  0  0  0  0  0  0  0  0
  -40.0630  166.5118   80.6673 C   0  0  0  0  0  0  0  0  0  0  0  0
  -39.6163  166.1387   79.1859 C   0  0  0  0  0  0  0  0  0  0  0  0
  -39.3169  164.6598   79.3209 C   0  0  0  0  0  0  0  0  0  0  0  0
  -38.7552  164.1840   80.3404 O   0  0  0  0  0  0  0  0  0  0  0  0
  -39.6564  163.7080   78.3415 N   0  0  0  0  0  0  0  0  0  0  0  0
  -39.3458  162.2714   78.6286 C   0  0  0  0  0  0  0  0  0  0  0  0
  -39.9131  161.5039   77.5016 C   0  0  0  0  0  0  0  0  0  0  0  0
  -39.8605  160.0443   77.4652 C   0  0  0  0  0  0  0  0  0  0  0  0
  -40.4440  159.2127   78.5176 C   0  0  0  0  0  0  0  0  0  0  0  0
  -39.7300  158.8141   79.7505 C   0  0  1  0  0  0  0  0  0  0  0  0
  -38.5008  158.0908   79.4932 C   0  0  0  0  0  0  0  0  0  0  0  0
  -38.0601  157.9139   78.3063 O   0  0  0  0  0  0  0  0  0  0  0  0
  -37.6246  157.4771   80.4913 N   0  0  0  0  0  0  0  0  0  0  0  0
  -36.4708  156.8757   79.8983 C   0  0  1  0  0  0  0  0  0  0  0  0
  -35.3294  156.5537   80.8219 C   0  0  0  0  0  0  0  0  0  0  0  0
  -34.7422  157.7112   81.4955 C   0  0  0  0  0  0  0  0  0  0  0  0
  -33.6036  157.4528   82.4080 C   0  0  0  0  0  0  0  0  0  0  0  0
  -33.8866  156.6289   83.5199 N   0  0  0  0  0  0  0  0  0  0  0  0
  -33.9323  155.2448   83.6299 C   0  0  0  0  0  0  0  0  0  0  0  0
  -34.2686  154.6534   84.9156 N   0  0  0  0  0  0  0  0  0  0  0  0
  -33.7016  154.4219   82.6860 N   0  0  0  0  0  0  0  0  0  0  0  0
  -36.7841  155.5388   79.2153 C   0  0  0  0  0  0  0  0  0  0  0  0
  -37.8565  155.0271   79.6180 O   0  0  0  0  0  0  0  0  0  0  0  0
  -35.8967  155.1010   78.2710 N   0  0  0  0  0  0  0  0  0  0  0  0
  -35.9148  153.9207   77.4572 C   0  0  0  0  0  0  0  0  0  0  0  0
  -35.3563  152.6913   78.0510 C   0  0  0  0  0  0  0  0  0  0  0  0
  -33.9545  152.5414   77.8641 C   0  0  0  0  0  0  0  0  0  0  0  0
  -33.3403  151.3918   78.3134 C   0  0  0  0  0  0  0  0  0  0  0  0
  -34.0950  150.3886   78.9447 C   0  0  0  0  0  0  0  0  0  0  0  0
  -33.3340  149.2115   79.3231 C   0  0  0  0  0  0  0  0  0  0  0  0
  -32.0285  149.3054   79.8648 N   0  0  0  0  0  0  0  0  0  0  0  0
  -33.9115  148.0086   79.1486 N   0  0  0  0  0  0  0  0  0  0  0  0
  -35.4575  150.5195   79.1377 C   0  0  0  0  0  0  0  0  0  0  0  0
  -36.0666  151.6936   78.6750 C   0  0  0  0  0  0  0  0  0  0  0  0
  -39.7326  159.6435   80.8888 N   0  0  0  0  0  0  0  0  0  0  0  0
  -40.8038  160.1695   81.6474 C   0  0  0  0  0  0  0  0  0  0  0  0
  -41.9398  159.9448   81.2289 O   0  0  0  0  0  0  0  0  0  0  0  0
  -40.5075  160.9802   82.9040 C   0  0  2  0  0  0  0  0  0  0  0  0
  -40.4933  159.9340   84.0392 C   0  0  0  0  0  0  0  0  0  0  0  0
  -40.1074  160.5198   85.3461 C   0  0  0  0  0  0  0  0  0  0  0  0
  -38.7315  161.1413   85.3215 C   0  0  0  0  0  0  0  0  0  0  0  0
  -37.6801  160.1860   85.1037 N   0  0  0  0  0  0  0  0  0  0  0  0
  -36.3594  160.8137   84.9453 C   0  0  0  0  0  0  0  0  0  0  0  0
  -35.2865  159.9256   84.7348 N   0  0  0  0  0  0  0  0  0  0  0  0
  -36.3345  162.0462   85.0100 N   0  0  0  0  0  0  0  0  0  0  0  0
  -41.4770  162.0080   83.0277 N   0  0  0  0  0  0  0  0  0  0  0  0
  -42.4226  162.4669   83.9310 C   0  0  0  0  0  0  0  0  0  0  0  0
  -42.7366  161.8469   84.9088 O   0  0  0  0  0  0  0  0  0  0  0  0
  1  2  1  0
  2  3  2  0
  2  4  1  0
  4  5  1  0
  5  6  1  0
  6  7  1  0
  8  7  1  6
  8  9  1  0
  9 10  1  0
 10 11  2  0
 10 12  1  0
 12 13  1  0
 13 14  1  0
 14 15  1  0
 15 16  2  0
 15 17  1  0
 17 18  1  0
 18 19  1  0
 19 20  1  0
 20 21  1  0
 21 22  1  0
 22 23  1  6
 23 24  2  0
 23 25  1  0
 25 26  1  0
 26 27  1  1
 27 28  1  0
 28 29  1  0
 29 30  1  0
 30 31  1  0
 31 32  1  0
 31 33  2  0
 26 34  1  0
 34 35  2  0
 34 36  1  0
 36 37  1  0
 37 38  1  0
 38 39  2  0
 39 40  1  0
 40 41  2  0
 41 42  1  0
 42 43  1  0
 42 44  2  0
 41 45  1  0
 45 46  2  0
 22 47  1  0
 47 48  1  0
 48 49  2  0
 48 50  1  0
 50 51  1  1
 51 52  1  0
 52 53  1  0
 53 54  1  0
 54 55  1  0
 55 56  1  0
 55 57  2  0
 50 58  1  0
 58 59  1  0
 59 60  2  0
 59  8  1  0
 46 38  1  0
M  CHG  4   3   1  33   1  44   1  57   1
M  END
>  <shape_align_shape_tanimoto>  (1) 
0.41070858589668913

>  <shape_align_color_tanimoto>  (1) 
0.016083657779179708

>  <metric>  (1) 
shape

>  <metric_score>  (1) 
0.411

>  <template_pid>  (1) 
6HLE

>  <template_shape_score>  (1) 
0.411

>  <template_color_score>  (1) 
0.016

>  <template_combo_score>  (1) 
0.213

$$$$
6HLE_color_pose
     RDKit          3D

 60 61  0  0  0  0  0  0  0  0999 V2000
  -46.9174  162.9281   83.4812 N   0  0  0  0  0  0  0  0  0  0  0  0
  -46.1868  162.4863   82.3049 C   0  0  0  0  0  0  0  0  0  0  0  0
  -45.0730  163.0351   82.0337 N   0  0  0  0  0  0  0  0  0  0  0  0
  -46.7574  161.4595   81.5666 N   0  0  0  0  0  0  0  0  0  0  0  0
  -46.3420  160.7533   80.4057 C   0  0  0  0  0  0  0  0  0  0  0  0
  -45.2035  159.8051   80.4888 C   0  0  0  0  0  0  0  0  0  0  0  0
  -43.8243  160.1931   80.6693 C   0  0  0  0  0  0  0  0  0  0  0  0
  -43.1122  160.9454   79.5439 C   0  0  2  0  0  0  0  0  0  0  0  0
  -43.0416  160.1550   78.3431 N   0  0  0  0  0  0  0  0  0  0  0  0
  -44.0023  159.8458   77.3361 C   0  0  0  0  0  0  0  0  0  0  0  0
  -45.1132  160.3095   77.5146 O   0  0  0  0  0  0  0  0  0  0  0  0
  -43.5165  159.0032   76.2341 C   0  0  0  0  0  0  0  0  0  0  0  0
  -44.3656  158.0101   75.5987 C   0  0  0  0  0  0  0  0  0  0  0  0
  -44.8520  156.8395   76.4241 C   0  0  0  0  0  0  0  0  0  0  0  0
  -43.9312  156.4099   77.4728 C   0  0  0  0  0  0  0  0  0  0  0  0
  -43.5030  157.3139   78.2465 O   0  0  0  0  0  0  0  0  0  0  0  0
  -43.4025  155.1400   77.7989 N   0  0  0  0  0  0  0  0  0  0  0  0
  -42.4847  155.1126   78.9546 C   0  0  0  0  0  0  0  0  0  0  0  0
  -41.2990  155.9734   78.8480 C   0  0  0  0  0  0  0  0  0  0  0  0
  -40.4557  155.9864   80.1616 C   0  0  0  0  0  0  0  0  0  0  0  0
  -39.5915  157.1860   80.0092 C   0  0  0  0  0  0  0  0  0  0  0  0
  -38.6861  157.4731   81.2628 C   0  0  1  0  0  0  0  0  0  0  0  0
  -37.6351  156.5075   81.3536 C   0  0  0  0  0  0  0  0  0  0  0  0
  -37.9765  155.3290   81.7678 O   0  0  0  0  0  0  0  0  0  0  0  0
  -36.3046  156.8193   81.0012 N   0  0  0  0  0  0  0  0  0  0  0  0
  -35.1568  155.9788   80.9823 C   0  0  1  0  0  0  0  0  0  0  0  0
  -33.9571  156.3609   81.7261 C   0  0  0  0  0  0  0  0  0  0  0  0
  -33.9918  156.5471   83.1865 C   0  0  0  0  0  0  0  0  0  0  0  0
  -34.9347  157.6136   83.6853 C   0  0  0  0  0  0  0  0  0  0  0  0
  -34.5007  158.8707   83.0686 N   0  0  0  0  0  0  0  0  0  0  0  0
  -35.2120  160.0711   83.3431 C   0  0  0  0  0  0  0  0  0  0  0  0
  -34.7873  161.2875   82.7348 N   0  0  0  0  0  0  0  0  0  0  0  0
  -36.2315  160.0395   84.1328 N   0  0  0  0  0  0  0  0  0  0  0  0
  -35.3521  154.5257   80.7861 C   0  0  0  0  0  0  0  0  0  0  0  0
  -34.4373  153.7694   81.2718 O   0  0  0  0  0  0  0  0  0  0  0  0
  -36.4100  153.8872   80.1279 N   0  0  0  0  0  0  0  0  0  0  0  0
  -36.5625  152.4549   79.9783 C   0  0  0  0  0  0  0  0  0  0  0  0
  -35.7161  152.0086   78.8455 C   0  0  0  0  0  0  0  0  0  0  0  0
  -36.3396  152.0815   77.5831 C   0  0  0  0  0  0  0  0  0  0  0  0
  -35.6933  151.6827   76.4403 C   0  0  0  0  0  0  0  0  0  0  0  0
  -34.3954  151.2025   76.5662 C   0  0  0  0  0  0  0  0  0  0  0  0
  -33.7532  150.7819   75.3192 C   0  0  0  0  0  0  0  0  0  0  0  0
  -34.1364  151.4094   74.0930 N   0  0  0  0  0  0  0  0  0  0  0  0
  -32.8428  149.8621   75.2801 N   0  0  0  0  0  0  0  0  0  0  0  0
  -33.7725  151.1268   77.7985 C   0  0  0  0  0  0  0  0  0  0  0  0
  -34.4345  151.5330   78.9629 C   0  0  0  0  0  0  0  0  0  0  0  0
  -38.4078  158.8866   81.0392 N   0  0  0  0  0  0  0  0  0  0  0  0
  -39.4991  159.7449   81.3026 C   0  0  0  0  0  0  0  0  0  0  0  0
  -40.5340  159.2049   81.7402 O   0  0  0  0  0  0  0  0  0  0  0  0
  -39.5813  161.2325   81.1149 C   0  0  2  0  0  0  0  0  0  0  0  0
  -38.9289  162.0579   82.1181 C   0  0  0  0  0  0  0  0  0  0  0  0
  -38.9932  163.5428   81.8863 C   0  0  0  0  0  0  0  0  0  0  0  0
  -40.3651  164.1286   81.8386 C   0  0  0  0  0  0  0  0  0  0  0  0
  -40.2327  165.5883   81.6174 N   0  0  0  0  0  0  0  0  0  0  0  0
  -41.4631  166.2976   81.5691 C   0  0  0  0  0  0  0  0  0  0  0  0
  -41.4240  167.7144   81.3553 N   0  0  0  0  0  0  0  0  0  0  0  0
  -42.6198  165.6995   81.7101 N   0  0  0  0  0  0  0  0  0  0  0  0
  -41.0870  161.4542   81.1142 N   0  0  0  0  0  0  0  0  0  0  0  0
  -41.6857  161.0640   79.9224 C   0  0  0  0  0  0  0  0  0  0  0  0
  -40.8730  160.7416   78.9837 O   0  0  0  0  0  0  0  0  0  0  0  0
  1  2  1  0
  2  3  2  0
  2  4  1  0
  4  5  1  0
  5  6  1  0
  6  7  1  0
  8  7  1  1
  8  9  1  0
  9 10  1  0
 10 11  2  0
 10 12  1  0
 12 13  1  0
 13 14  1  0
 14 15  1  0
 15 16  2  0
 15 17  1  0
 17 18  1  0
 18 19  1  0
 19 20  1  0
 20 21  1  0
 21 22  1  0
 22 23  1  6
 23 24  2  0
 23 25  1  0
 25 26  1  0
 26 27  1  1
 27 28  1  0
 28 29  1  0
 29 30  1  0
 30 31  1  0
 31 32  1  0
 31 33  2  0
 26 34  1  0
 34 35  2  0
 34 36  1  0
 36 37  1  0
 37 38  1  0
 38 39  2  0
 39 40  1  0
 40 41  2  0
 41 42  1  0
 42 43  1  0
 42 44  2  0
 41 45  1  0
 45 46  2  0
 22 47  1  0
 47 48  1  0
 48 49  2  0
 48 50  1  0
 50 51  1  1
 51 52  1  0
 52 53  1  0
 53 54  1  0
 54 55  1  0
 55 56  1  0
 55 57  2  0
 50 58  1  0
 58 59  1  0
 59 60  2  0
 59  8  1  0
 46 38  1  0
M  CHG  4   3   1  33   1  44   1  57   1
M  END
>  <shape_align_shape_tanimoto>  (2) 
0.27047554079420183

>  <shape_align_color_tanimoto>  (2) 
0.0540960632426494

>  <metric>  (2) 
color

>  <metric_score>  (2) 
0.054

>  <template_pid>  (2) 
6HLE

>  <template_shape_score>  (2) 
0.270

>  <template_color_score>  (2) 
0.054

>  <template_combo_score>  (2) 
0.162

$$$$
6HLE_combo_pose
     RDKit          3D

 60 61  0  0  0  0  0  0  0  0999 V2000
  -47.7756  160.1040   80.0723 N   0  0  0  0  0  0  0  0  0  0  0  0
  -47.1341  161.2589   80.6332 C   0  0  0  0  0  0  0  0  0  0  0  0
  -46.5968  162.1630   79.8745 N   0  0  0  0  0  0  0  0  0  0  0  0
  -47.1095  161.3453   82.0402 N   0  0  0  0  0  0  0  0  0  0  0  0
  -46.5237  162.3774   82.8223 C   0  0  0  0  0  0  0  0  0  0  0  0
  -45.0456  162.5333   82.7992 C   0  0  0  0  0  0  0  0  0  0  0  0
  -44.5923  163.6352   83.7637 C   0  0  0  0  0  0  0  0  0  0  0  0
  -43.1392  163.8385   83.6912 C   0  0  2  0  0  0  0  0  0  0  0  0
  -42.6452  164.2912   82.4035 N   0  0  0  0  0  0  0  0  0  0  0  0
  -41.7119  165.3896   82.2585 C   0  0  0  0  0  0  0  0  0  0  0  0
  -41.4833  166.0159   83.2792 O   0  0  0  0  0  0  0  0  0  0  0  0
  -41.1914  165.5695   80.8997 C   0  0  0  0  0  0  0  0  0  0  0  0
  -40.0630  166.5118   80.6673 C   0  0  0  0  0  0  0  0  0  0  0  0
  -39.6163  166.1387   79.1859 C   0  0  0  0  0  0  0  0  0  0  0  0
  -39.3169  164.6598   79.3209 C   0  0  0  0  0  0  0  0  0  0  0  0
  -38.7552  164.1840   80.3404 O   0  0  0  0  0  0  0  0  0  0  0  0
  -39.6564  163.7080   78.3415 N   0  0  0  0  0  0  0  0  0  0  0  0
  -39.3458  162.2714   78.6286 C   0  0  0  0  0  0  0  0  0  0  0  0
  -39.9131  161.5039   77.5016 C   0  0  0  0  0  0  0  0  0  0  0  0
  -39.8605  160.0443   77.4652 C   0  0  0  0  0  0  0  0  0  0  0  0
  -40.4440  159.2127   78.5176 C   0  0  0  0  0  0  0  0  0  0  0  0
  -39.7300  158.8141   79.7505 C   0  0  1  0  0  0  0  0  0  0  0  0
  -38.5008  158.0908   79.4932 C   0  0  0  0  0  0  0  0  0  0  0  0
  -38.0601  157.9139   78.3063 O   0  0  0  0  0  0  0  0  0  0  0  0
  -37.6246  157.4771   80.4913 N   0  0  0  0  0  0  0  0  0  0  0  0
  -36.4708  156.8757   79.8983 C   0  0  1  0  0  0  0  0  0  0  0  0
  -35.3294  156.5537   80.8219 C   0  0  0  0  0  0  0  0  0  0  0  0
  -34.7422  157.7112   81.4955 C   0  0  0  0  0  0  0  0  0  0  0  0
  -33.6036  157.4528   82.4080 C   0  0  0  0  0  0  0  0  0  0  0  0
  -33.8866  156.6289   83.5199 N   0  0  0  0  0  0  0  0  0  0  0  0
  -33.9323  155.2448   83.6299 C   0  0  0  0  0  0  0  0  0  0  0  0
  -34.2686  154.6534   84.9156 N   0  0  0  0  0  0  0  0  0  0  0  0
  -33.7016  154.4219   82.6860 N   0  0  0  0  0  0  0  0  0  0  0  0
  -36.7841  155.5388   79.2153 C   0  0  0  0  0  0  0  0  0  0  0  0
  -37.8565  155.0271   79.6180 O   0  0  0  0  0  0  0  0  0  0  0  0
  -35.8967  155.1010   78.2710 N   0  0  0  0  0  0  0  0  0  0  0  0
  -35.9148  153.9207   77.4572 C   0  0  0  0  0  0  0  0  0  0  0  0
  -35.3563  152.6913   78.0510 C   0  0  0  0  0  0  0  0  0  0  0  0
  -33.9545  152.5414   77.8641 C   0  0  0  0  0  0  0  0  0  0  0  0
  -33.3403  151.3918   78.3134 C   0  0  0  0  0  0  0  0  0  0  0  0
  -34.0950  150.3886   78.9447 C   0  0  0  0  0  0  0  0  0  0  0  0
  -33.3340  149.2115   79.3231 C   0  0  0  0  0  0  0  0  0  0  0  0
  -32.0285  149.3054   79.8648 N   0  0  0  0  0  0  0  0  0  0  0  0
  -33.9115  148.0086   79.1486 N   0  0  0  0  0  0  0  0  0  0  0  0
  -35.4575  150.5195   79.1377 C   0  0  0  0  0  0  0  0  0  0  0  0
  -36.0666  151.6936   78.6750 C   0  0  0  0  0  0  0  0  0  0  0  0
  -39.7326  159.6435   80.8888 N   0  0  0  0  0  0  0  0  0  0  0  0
  -40.8038  160.1695   81.6474 C   0  0  0  0  0  0  0  0  0  0  0  0
  -41.9398  159.9448   81.2289 O   0  0  0  0  0  0  0  0  0  0  0  0
  -40.5075  160.9802   82.9040 C   0  0  2  0  0  0  0  0  0  0  0  0
  -40.4933  159.9340   84.0392 C   0  0  0  0  0  0  0  0  0  0  0  0
  -40.1074  160.5198   85.3461 C   0  0  0  0  0  0  0  0  0  0  0  0
  -38.7315  161.1413   85.3215 C   0  0  0  0  0  0  0  0  0  0  0  0
  -37.6801  160.1860   85.1037 N   0  0  0  0  0  0  0  0  0  0  0  0
  -36.3594  160.8137   84.9453 C   0  0  0  0  0  0  0  0  0  0  0  0
  -35.2865  159.9256   84.7348 N   0  0  0  0  0  0  0  0  0  0  0  0
  -36.3345  162.0462   85.0100 N   0  0  0  0  0  0  0  0  0  0  0  0
  -41.4770  162.0080   83.0277 N   0  0  0  0  0  0  0  0  0  0  0  0
  -42.4226  162.4669   83.9310 C   0  0  0  0  0  0  0  0  0  0  0  0
  -42.7366  161.8469   84.9088 O   0  0  0  0  0  0  0  0  0  0  0  0
  1  2  1  0
  2  3  2  0
  2  4  1  0
  4  5  1  0
  5  6  1  0
  6  7  1  0
  8  7  1  6
  8  9  1  0
  9 10  1  0
 10 11  2  0
 10 12  1  0
 12 13  1  0
 13 14  1  0
 14 15  1  0
 15 16  2  0
 15 17  1  0
 17 18  1  0
 18 19  1  0
 19 20  1  0
 20 21  1  0
 21 22  1  0
 22 23  1  6
 23 24  2  0
 23 25  1  0
 25 26  1  0
 26 27  1  1
 27 28  1  0
 28 29  1  0
 29 30  1  0
 30 31  1  0
 31 32  1  0
 31 33  2  0
 26 34  1  0
 34 35  2  0
 34 36  1  0
 36 37  1  0
 37 38  1  0
 38 39  2  0
 39 40  1  0
 40 41  2  0
 41 42  1  0
 42 43  1  0
 42 44  2  0
 41 45  1  0
 45 46  2  0
 22 47  1  0
 47 48  1  0
 48 49  2  0
 48 50  1  0
 50 51  1  1
 51 52  1  0
 52 53  1  0
 53 54  1  0
 54 55  1  0
 55 56  1  0
 55 57  2  0
 50 58  1  0
 58 59  1  0
 59 60  2  0
 59  8  1  0
 46 38  1  0
M  CHG  4   3   1  33   1  44   1  57   1
M  END
>  <shape_align_shape_tanimoto>  (3) 
0.41070858589668913

>  <shape_align_color_tanimoto>  (3) 
0.016083657779179708

>  <metric>  (3) 
combo

>  <metric_score>  (3) 
0.213

>  <template_pid>  (3) 
6HLE

>  <template_shape_score>  (3) 
0.411

>  <template_color_score>  (3) 
0.016

>  <template_combo_score>  (3) 
0.213

$$$$
