4DDH_shape_pose
     RDKit          3D

 15 16  0  0  0  0  0  0  0  0999 V2000
   56.8776    3.9882   35.0335 C   0  0  0  0  0  0  0  0  0  0  0  0
   57.9469    3.6304   34.1991 O   0  0  0  0  0  0  0  0  0  0  0  0
   58.1406    2.3096   33.7893 C   0  0  0  0  0  0  0  0  0  0  0  0
   57.2516    1.3703   34.2927 C   0  0  0  0  0  0  0  0  0  0  0  0
   57.4177    0.0724   33.8901 C   0  0  0  0  0  0  0  0  0  0  0  0
   58.4166   -0.3518   33.0105 C   0  0  0  0  0  0  0  0  0  0  0  0
   58.7871   -1.5361   32.4286 C   0  0  0  0  0  0  0  0  0  0  0  0
   58.2183   -2.8746   32.6596 C   0  0  0  0  0  0  0  0  0  0  0  0
   59.0803   -3.9166   33.1963 C   0  0  0  0  0  0  0  0  0  0  0  0
   58.5088   -4.9765   33.6394 O   0  0  0  0  0  0  0  0  0  0  0  0
   60.4804   -3.8460   33.2687 O   0  0  0  0  0  0  0  0  0  0  0  0
   59.8860   -1.2150   31.6161 C   0  0  0  0  0  0  0  0  0  0  0  0
   60.1491    0.0607   31.7000 O   0  0  0  0  0  0  0  0  0  0  0  0
   59.2908    0.6426   32.5306 C   0  0  0  0  0  0  0  0  0  0  0  0
   59.1623    1.9611   32.9172 C   0  0  0  0  0  0  0  0  0  0  0  0
  1  2  1  0
  2  3  1  0
  3  4  2  0
  4  5  1  0
  5  6  2  0
  6  7  1  0
  7  8  1  0
  8  9  1  0
  9 10  2  0
  9 11  1  0
  7 12  2  0
 12 13  1  0
 13 14  1  0
 14 15  2  0
 15  3  1  0
 14  6  1  0
M  CHG  1  11  -1
M  END
>  <shape_align_shape_tanimoto>  (1) 
0.66345762257560448

>  <shape_align_color_tanimoto>  (1) 
0.17529572254089332

>  <metric>  (1) 
shape

>  <metric_score>  (1) 
0.663

>  <template_pid>  (1) 
4DDH

>  <template_shape_score>  (1) 
0.663

>  <template_color_score>  (1) 
0.175

>  <template_combo_score>  (1) 
0.419

$$$$
4DDH_color_pose
     RDKit          3D

 15 16  0  0  0  0  0  0  0  0999 V2000
   56.8776    3.9882   35.0335 C   0  0  0  0  0  0  0  0  0  0  0  0
   57.9469    3.6304   34.1991 O   0  0  0  0  0  0  0  0  0  0  0  0
   58.1406    2.3096   33.7893 C   0  0  0  0  0  0  0  0  0  0  0  0
   57.2516    1.3703   34.2927 C   0  0  0  0  0  0  0  0  0  0  0  0
   57.4177    0.0724   33.8901 C   0  0  0  0  0  0  0  0  0  0  0  0
   58.4166   -0.3518   33.0105 C   0  0  0  0  0  0  0  0  0  0  0  0
   58.7871   -1.5361   32.4286 C   0  0  0  0  0  0  0  0  0  0  0  0
   58.2183   -2.8746   32.6596 C   0  0  0  0  0  0  0  0  0  0  0  0
   59.0803   -3.9166   33.1963 C   0  0  0  0  0  0  0  0  0  0  0  0
   58.5088   -4.9765   33.6394 O   0  0  0  0  0  0  0  0  0  0  0  0
   60.4804   -3.8460   33.2687 O   0  0  0  0  0  0  0  0  0  0  0  0
   59.8860   -1.2150   31.6161 C   0  0  0  0  0  0  0  0  0  0  0  0
   60.1491    0.0607   31.7000 O   0  0  0  0  0  0  0  0  0  0  0  0
   59.2908    0.6426   32.5306 C   0  0  0  0  0  0  0  0  0  0  0  0
   59.1623    1.9611   32.9172 C   0  0  0  0  0  0  0  0  0  0  0  0
  1  2  1  0
  2  3  1  0
  3  4  2  0
  4  5  1  0
  5  6  2  0
  6  7  1  0
  7  8  1  0
  8  9  1  0
  9 10  2  0
  9 11  1  0
  7 12  2  0
 12 13  1  0
 13 14  1  0
 14 15  2  0
 15  3  1  0
 14  6  1  0
M  CHG  1  11  -1
M  END
>  <shape_align_shape_tanimoto>  (2) 
0.66345762257560448

>  <shape_align_color_tanimoto>  (2) 
0.17529572254089332

>  <metric>  (2) 
color

>  <metric_score>  (2) 
0.175

>  <template_pid>  (2) 
4DDH

>  <template_shape_score>  (2) 
0.663

>  <template_color_score>  (2) 
0.175

>  <template_combo_score>  (2) 
0.419

$$$$
4DDH_combo_pose
     RDKit          3D

 15 16  0  0  0  0  0  0  0  0999 V2000
   56.8776    3.9882   35.0335 C   0  0  0  0  0  0  0  0  0  0  0  0
   57.9469    3.6304   34.1991 O   0  0  0  0  0  0  0  0  0  0  0  0
   58.1406    2.3096   33.7893 C   0  0  0  0  0  0  0  0  0  0  0  0
   57.2516    1.3703   34.2927 C   0  0  0  0  0  0  0  0  0  0  0  0
   57.4177    0.0724   33.8901 C   0  0  0  0  0  0  0  0  0  0  0  0
   58.4166   -0.3518   33.0105 C   0  0  0  0  0  0  0  0  0  0  0  0
   58.7871   -1.5361   32.4286 C   0  0  0  0  0  0  0  0  0  0  0  0
   58.2183   -2.8746   32.6596 C   0  0  0  0  0  0  0  0  0  0  0  0
   59.0803   -3.9166   33.1963 C   0  0  0  0  0  0  0  0  0  0  0  0
   58.5088   -4.9765   33.6394 O   0  0  0  0  0  0  0  0  0  0  0  0
   60.4804   -3.8460   33.2687 O   0  0  0  0  0  0  0  0  0  0  0  0
   59.8860   -1.2150   31.6161 C   0  0  0  0  0  0  0  0  0  0  0  0
   60.1491    0.0607   31.7000 O   0  0  0  0  0  0  0  0  0  0  0  0
   59.2908    0.6426   32.5306 C   0  0  0  0  0  0  0  0  0  0  0  0
   59.1623    1.9611   32.9172 C   0  0  0  0  0  0  0  0  0  0  0  0
  1  2  1  0
  2  3  1  0
  3  4  2  0
  4  5  1  0
  5  6  2  0
  6  7  1  0
  7  8  1  0
  8  9  1  0
  9 10  2  0
  9 11  1  0
  7 12  2  0
 12 13  1  0
 13 14  1  0
 14 15  2  0
 15  3  1  0
 14  6  1  0
M  CHG  1  11  -1
M  END
>  <shape_align_shape_tanimoto>  (3) 
0.66345762257560448

>  <shape_align_color_tanimoto>  (3) 
0.17529572254089332

>  <metric>  (3) 
combo

>  <metric_score>  (3) 
0.419

>  <template_pid>  (3) 
4DDH

>  <template_shape_score>  (3) 
0.663

>  <template_color_score>  (3) 
0.175

>  <template_combo_score>  (3) 
0.419

$$$$
