5ECH_shape_pose
     RDKit          3D

 15 15  0  0  0  0  0  0  0  0999 V2000
    1.6693   79.7328   80.7470 C   0  0  0  0  0  0  0  0  0  0  0  0
    2.0518   78.7484   79.6955 C   0  0  0  0  0  0  0  0  0  0  0  0
    1.2705   77.7162   79.3978 C   0  0  0  0  0  0  0  0  0  0  0  0
    1.6933   76.7434   78.3282 C   0  0  0  0  0  0  0  0  0  0  0  0
    1.8223   75.3561   78.9049 C   0  0  0  0  0  0  0  0  0  0  0  0
    0.5274   74.9366   79.4614 C   0  0  1  0  0  0  0  0  0  0  0  0
   -0.6194   74.8556   78.5401 C   0  0  0  0  0  0  0  0  0  0  0  0
   -0.8232   75.2510   77.4169 O   0  0  0  0  0  0  0  0  0  0  0  0
   -1.6758   74.0901   79.3067 C   0  0  0  0  0  0  0  0  0  0  0  0
   -0.9150   73.4674   80.4789 C   0  0  0  0  0  0  0  0  0  0  0  0
    0.5094   73.4977   79.9639 C   0  0  2  0  0  0  0  0  0  0  0  0
    1.5130   73.2387   81.0534 C   0  0  0  0  0  0  0  0  0  0  0  0
    1.3976   71.8141   81.4537 C   0  0  0  0  0  0  0  0  0  0  0  0
    0.5717   71.0212   80.9204 O   0  0  0  0  0  0  0  0  0  0  0  0
    2.2236   71.3208   82.4519 O   0  0  0  0  0  0  0  0  0  0  0  0
  1  2  1  0
  2  3  2  0
  3  4  1  0
  4  5  1  0
  6  5  1  6
  6  7  1  0
  7  8  2  0
  7  9  1  0
  9 10  1  0
 10 11  1  0
 11 12  1  1
 12 13  1  0
 13 14  2  0
 13 15  1  0
 11  6  1  0
M  CHG  1  15  -1
M  END
>  <shape_align_shape_tanimoto>  (1) 
0.6015025968617026

>  <shape_align_color_tanimoto>  (1) 
0.0022232526908647627

>  <metric>  (1) 
shape

>  <metric_score>  (1) 
0.602

>  <template_pid>  (1) 
5ECH

>  <template_shape_score>  (1) 
0.602

>  <template_color_score>  (1) 
0.002

>  <template_combo_score>  (1) 
0.302

$$$$
5ECH_color_pose
     RDKit          3D

 15 15  0  0  0  0  0  0  0  0999 V2000
    0.7595   70.2306   82.1370 C   0  0  0  0  0  0  0  0  0  0  0  0
    1.4552   71.5505   82.0941 C   0  0  0  0  0  0  0  0  0  0  0  0
    1.5129   72.2793   80.9653 C   0  0  0  0  0  0  0  0  0  0  0  0
    2.2005   73.5746   80.9394 C   0  0  0  0  0  0  0  0  0  0  0  0
    1.3709   74.7318   80.6257 C   0  0  0  0  0  0  0  0  0  0  0  0
    0.6117   74.9285   79.4235 C   0  0  1  0  0  0  0  0  0  0  0  0
   -0.4980   74.0705   78.9999 C   0  0  0  0  0  0  0  0  0  0  0  0
   -1.0354   73.0691   79.3836 O   0  0  0  0  0  0  0  0  0  0  0  0
   -1.0026   74.7626   77.7285 C   0  0  0  0  0  0  0  0  0  0  0  0
   -0.6024   76.2314   77.9420 C   0  0  0  0  0  0  0  0  0  0  0  0
   -0.1788   76.2556   79.3859 C   0  0  2  0  0  0  0  0  0  0  0  0
    0.6041   77.4272   79.8225 C   0  0  0  0  0  0  0  0  0  0  0  0
    1.8082   77.7223   79.0593 C   0  0  0  0  0  0  0  0  0  0  0  0
    2.2620   77.0816   78.0846 O   0  0  0  0  0  0  0  0  0  0  0  0
    2.5595   78.8507   79.4456 O   0  0  0  0  0  0  0  0  0  0  0  0
  1  2  1  0
  2  3  2  0
  3  4  1  0
  4  5  1  0
  6  5  1  1
  6  7  1  0
  7  8  2  0
  7  9  1  0
  9 10  1  0
 10 11  1  0
 11 12  1  6
 12 13  1  0
 13 14  2  0
 13 15  1  0
 11  6  1  0
M  CHG  1  15  -1
M  END
>  <shape_align_shape_tanimoto>  (2) 
0.52210048811966026

>  <shape_align_color_tanimoto>  (2) 
0.12605335139773441

>  <metric>  (2) 
color

>  <metric_score>  (2) 
0.126

>  <template_pid>  (2) 
5ECH

>  <template_shape_score>  (2) 
0.522

>  <template_color_score>  (2) 
0.126

>  <template_combo_score>  (2) 
0.324

$$$$
5ECH_combo_pose
     RDKit          3D

 15 15  0  0  0  0  0  0  0  0999 V2000
    1.5691   70.7146   83.2010 C   0  0  0  0  0  0  0  0  0  0  0  0
    1.2052   71.6436   82.0761 C   0  0  0  0  0  0  0  0  0  0  0  0
    2.1758   72.2285   81.4173 C   0  0  0  0  0  0  0  0  0  0  0  0
    1.9685   73.1745   80.2780 C   0  0  0  0  0  0  0  0  0  0  0  0
    0.5680   73.4142   79.9322 C   0  0  0  0  0  0  0  0  0  0  0  0
    0.2927   74.3463   78.8131 C   0  0  1  0  0  0  0  0  0  0  0  0
   -1.2423   74.3811   78.5723 C   0  0  0  0  0  0  0  0  0  0  0  0
   -2.0545   73.6671   79.1103 O   0  0  0  0  0  0  0  0  0  0  0  0
   -1.3822   75.4651   77.5681 C   0  0  0  0  0  0  0  0  0  0  0  0
   -0.1059   76.2904   77.6650 C   0  0  0  0  0  0  0  0  0  0  0  0
    0.4040   75.8157   79.0439 C   0  0  2  0  0  0  0  0  0  0  0  0
    1.6710   76.4359   79.4148 C   0  0  0  0  0  0  0  0  0  0  0  0
    1.4484   77.9337   79.5666 C   0  0  0  0  0  0  0  0  0  0  0  0
    0.3219   78.4578   79.4589 O   0  0  0  0  0  0  0  0  0  0  0  0
    2.5682   78.6998   79.8335 O   0  0  0  0  0  0  0  0  0  0  0  0
  1  2  1  0
  2  3  2  0
  3  4  1  0
  4  5  1  0
  6  5  1  1
  6  7  1  0
  7  8  2  0
  7  9  1  0
  9 10  1  0
 10 11  1  0
 11 12  1  6
 12 13  1  0
 13 14  2  0
 13 15  1  0
 11  6  1  0
M  CHG  1  15  -1
M  END
>  <shape_align_shape_tanimoto>  (3) 
0.55836054821281034

>  <shape_align_color_tanimoto>  (3) 
0.10630551641212316

>  <metric>  (3) 
combo

>  <metric_score>  (3) 
0.332

>  <template_pid>  (3) 
5ECH

>  <template_shape_score>  (3) 
0.558

>  <template_color_score>  (3) 
0.106

>  <template_combo_score>  (3) 
0.332

$$$$
