6NRI_shape_pose
     RDKit          3D

 34 39  0  0  0  0  0  0  0  0999 V2000
   24.8705  -14.9585  -19.9015 N   0  0  0  0  0  0  0  0  0  0  0  0
   23.8111  -15.3896  -19.0663 C   0  0  0  0  0  0  0  0  0  0  0  0
   24.0468  -15.8736  -17.9132 O   0  0  0  0  0  0  0  0  0  0  0  0
   22.4112  -15.3162  -19.4491 C   0  0  0  0  0  0  0  0  0  0  0  0
   21.3834  -15.6429  -18.6026 C   0  0  0  0  0  0  0  0  0  0  0  0
   20.0554  -15.5612  -18.9977 C   0  0  0  0  0  0  0  0  0  0  0  0
   19.7016  -15.1444  -20.2777 C   0  0  0  0  0  0  0  0  0  0  0  0
   20.7517  -14.8162  -21.1304 C   0  0  0  0  0  0  0  0  0  0  0  0
   22.0760  -14.8977  -20.7320 C   0  0  0  0  0  0  0  0  0  0  0  0
   22.9200  -14.5186  -21.7693 O   0  0  0  0  0  0  0  0  0  0  0  0
   22.1806  -14.1667  -22.9033 C   0  0  0  0  0  0  0  0  0  0  0  0
   22.7324  -13.7690  -24.0138 C   0  0  0  0  0  0  0  0  0  0  0  0
   24.1959  -13.6945  -24.0558 C   0  0  0  0  0  0  0  0  0  0  0  0
   25.0312  -14.6957  -23.6331 C   0  0  0  0  0  0  0  0  0  0  0  0
   26.4147  -14.5384  -23.6462 C   0  0  0  0  0  0  0  0  0  0  0  0
   26.9552  -13.3624  -24.0884 C   0  0  0  0  0  0  0  0  0  0  0  0
   28.3659  -13.0435  -24.1384 C   0  0  0  0  0  0  0  0  0  0  0  0
   28.7713  -12.2850  -23.1810 O   0  0  0  0  0  0  0  0  0  0  0  0
   29.3109  -13.4347  -25.0644 N   0  0  0  0  0  0  0  0  0  0  0  0
   30.6973  -12.9277  -24.8878 C   0  0  0  0  0  0  0  0  0  0  0  0
   30.7944  -11.8409  -25.9468 C   0  0  0  0  0  0  0  0  0  0  0  0
   30.0607  -12.1626  -27.1401 N   0  0  0  0  0  0  0  0  0  0  0  0
   29.3274  -13.2485  -27.3734 C   0  0  0  0  0  0  0  0  0  0  0  0
   28.8201  -13.2111  -28.6260 N   0  0  0  0  0  0  0  0  0  0  0  0
   29.2218  -12.1032  -29.1910 N   0  0  0  0  0  0  0  0  0  0  0  0
   29.9926  -11.4360  -28.2847 C   0  0  0  0  0  0  0  0  0  0  0  0
   30.6092  -10.0820  -28.5361 C   0  0  0  0  0  0  0  0  0  0  0  0
   31.7428   -9.5772  -27.8396 C   0  0  0  0  0  0  0  0  0  0  0  0
   30.5369   -9.1770  -27.3312 C   0  0  0  0  0  0  0  0  0  0  0  0
   29.1536  -14.2584  -26.2454 C   0  0  0  0  0  0  0  0  0  0  0  0
   26.0899  -12.3418  -24.5193 C   0  0  0  0  0  0  0  0  0  0  0  0
   24.7298  -12.4757  -24.5163 C   0  0  0  0  0  0  0  0  0  0  0  0
   20.7838  -14.3448  -22.5343 C   0  0  0  0  0  0  0  0  0  0  0  0
   19.7965  -14.1295  -23.2902 O   0  0  0  0  0  0  0  0  0  0  0  0
  1  2  1  0
  2  3  2  0
  2  4  1  0
  4  5  2  0
  5  6  1  0
  6  7  2  0
  7  8  1  0
  8  9  2  0
  9 10  1  0
 10 11  1  0
 11 12  2  0
 12 13  1  0
 13 14  2  0
 14 15  1  0
 15 16  2  0
 16 17  1  0
 17 18  2  0
 17 19  1  0
 19 20  1  0
 20 21  1  0
 21 22  1  0
 22 23  1  0
 23 24  2  0
 24 25  1  0
 25 26  2  0
 26 27  1  0
 27 28  1  0
 28 29  2  0
 23 30  1  0
 16 31  1  0
 31 32  2  0
 11 33  1  0
 33 34  2  0
  9  4  1  0
 32 13  1  0
 33  8  1  0
 30 19  1  0
 26 22  1  0
 29 27  1  0
M  END
>  <shape_align_shape_tanimoto>  (1) 
0.60119629486598836

>  <shape_align_color_tanimoto>  (1) 
0.081008592547381048

>  <metric>  (1) 
shape

>  <metric_score>  (1) 
0.601

>  <template_pid>  (1) 
6NRI

>  <template_shape_score>  (1) 
0.601

>  <template_color_score>  (1) 
0.081

>  <template_combo_score>  (1) 
0.341

$$$$
6NRI_color_pose
     RDKit          3D

 34 39  0  0  0  0  0  0  0  0999 V2000
   23.5599  -15.2063  -19.2572 N   0  0  0  0  0  0  0  0  0  0  0  0
   22.2970  -15.5529  -18.7352 C   0  0  0  0  0  0  0  0  0  0  0  0
   22.0933  -16.0286  -17.5958 O   0  0  0  0  0  0  0  0  0  0  0  0
   21.1201  -15.3425  -19.5846 C   0  0  0  0  0  0  0  0  0  0  0  0
   19.8629  -15.5838  -19.0719 C   0  0  0  0  0  0  0  0  0  0  0  0
   18.7010  -15.4014  -19.8268 C   0  0  0  0  0  0  0  0  0  0  0  0
   18.8516  -14.9580  -21.1471 C   0  0  0  0  0  0  0  0  0  0  0  0
   20.1077  -14.7148  -21.6681 C   0  0  0  0  0  0  0  0  0  0  0  0
   21.2503  -14.9071  -20.8861 C   0  0  0  0  0  0  0  0  0  0  0  0
   22.3561  -14.5993  -21.6426 O   0  0  0  0  0  0  0  0  0  0  0  0
   21.9977  -14.2040  -22.9119 C   0  0  0  0  0  0  0  0  0  0  0  0
   22.7652  -13.8359  -23.9207 C   0  0  0  0  0  0  0  0  0  0  0  0
   24.2152  -13.7800  -23.8599 C   0  0  0  0  0  0  0  0  0  0  0  0
   24.9400  -13.3223  -22.7864 C   0  0  0  0  0  0  0  0  0  0  0  0
   26.3402  -13.3093  -22.8007 C   0  0  0  0  0  0  0  0  0  0  0  0
   26.9779  -13.7701  -23.9283 C   0  0  0  0  0  0  0  0  0  0  0  0
   28.4348  -13.8136  -24.0761 C   0  0  0  0  0  0  0  0  0  0  0  0
   29.1078  -14.6501  -23.4270 O   0  0  0  0  0  0  0  0  0  0  0  0
   29.0009  -12.8722  -24.9753 N   0  0  0  0  0  0  0  0  0  0  0  0
   28.1958  -11.8922  -25.7028 C   0  0  0  0  0  0  0  0  0  0  0  0
   28.3345  -12.0517  -27.1925 C   0  0  0  0  0  0  0  0  0  0  0  0
   29.6551  -12.4590  -27.6038 N   0  0  0  0  0  0  0  0  0  0  0  0
   30.6373  -12.8121  -26.7523 C   0  0  0  0  0  0  0  0  0  0  0  0
   31.6988  -13.1172  -27.5352 N   0  0  0  0  0  0  0  0  0  0  0  0
   31.4050  -12.9678  -28.7943 N   0  0  0  0  0  0  0  0  0  0  0  0
   30.1309  -12.5560  -28.8783 C   0  0  0  0  0  0  0  0  0  0  0  0
   29.3969  -12.2785  -30.1449 C   0  0  0  0  0  0  0  0  0  0  0  0
   28.0126  -12.8525  -30.2492 C   0  0  0  0  0  0  0  0  0  0  0  0
   28.1750  -11.4747  -30.1169 C   0  0  0  0  0  0  0  0  0  0  0  0
   30.4382  -12.8205  -25.2593 C   0  0  0  0  0  0  0  0  0  0  0  0
   26.2642  -14.2437  -25.0402 C   0  0  0  0  0  0  0  0  0  0  0  0
   24.8918  -14.2408  -24.9859 C   0  0  0  0  0  0  0  0  0  0  0  0
   20.5247  -14.2583  -22.9913 C   0  0  0  0  0  0  0  0  0  0  0  0
   19.7856  -13.9770  -23.9684 O   0  0  0  0  0  0  0  0  0  0  0  0
  1  2  1  0
  2  3  2  0
  2  4  1  0
  4  5  2  0
  5  6  1  0
  6  7  2  0
  7  8  1  0
  8  9  2  0
  9 10  1  0
 10 11  1  0
 11 12  2  0
 12 13  1  0
 13 14  2  0
 14 15  1  0
 15 16  2  0
 16 17  1  0
 17 18  2  0
 17 19  1  0
 19 20  1  0
 20 21  1  0
 21 22  1  0
 22 23  1  0
 23 24  2  0
 24 25  1  0
 25 26  2  0
 26 27  1  0
 27 28  1  0
 28 29  2  0
 23 30  1  0
 16 31  1  0
 31 32  2  0
 11 33  1  0
 33 34  2  0
  9  4  1  0
 32 13  1  0
 33  8  1  0
 30 19  1  0
 26 22  1  0
 29 27  1  0
M  END
>  <shape_align_shape_tanimoto>  (2) 
0.57343097723416159

>  <shape_align_color_tanimoto>  (2) 
0.11973827128353851

>  <metric>  (2) 
color

>  <metric_score>  (2) 
0.120

>  <template_pid>  (2) 
6NRI

>  <template_shape_score>  (2) 
0.573

>  <template_color_score>  (2) 
0.120

>  <template_combo_score>  (2) 
0.347

$$$$
6NRI_combo_pose
     RDKit          3D

 34 39  0  0  0  0  0  0  0  0999 V2000
   23.5599  -15.2063  -19.2572 N   0  0  0  0  0  0  0  0  0  0  0  0
   22.2970  -15.5529  -18.7352 C   0  0  0  0  0  0  0  0  0  0  0  0
   22.0933  -16.0286  -17.5958 O   0  0  0  0  0  0  0  0  0  0  0  0
   21.1201  -15.3425  -19.5846 C   0  0  0  0  0  0  0  0  0  0  0  0
   19.8629  -15.5838  -19.0719 C   0  0  0  0  0  0  0  0  0  0  0  0
   18.7010  -15.4014  -19.8268 C   0  0  0  0  0  0  0  0  0  0  0  0
   18.8516  -14.9580  -21.1471 C   0  0  0  0  0  0  0  0  0  0  0  0
   20.1077  -14.7148  -21.6681 C   0  0  0  0  0  0  0  0  0  0  0  0
   21.2503  -14.9071  -20.8861 C   0  0  0  0  0  0  0  0  0  0  0  0
   22.3561  -14.5993  -21.6426 O   0  0  0  0  0  0  0  0  0  0  0  0
   21.9977  -14.2040  -22.9119 C   0  0  0  0  0  0  0  0  0  0  0  0
   22.7652  -13.8359  -23.9207 C   0  0  0  0  0  0  0  0  0  0  0  0
   24.2152  -13.7800  -23.8599 C   0  0  0  0  0  0  0  0  0  0  0  0
   24.9400  -13.3223  -22.7864 C   0  0  0  0  0  0  0  0  0  0  0  0
   26.3402  -13.3093  -22.8007 C   0  0  0  0  0  0  0  0  0  0  0  0
   26.9779  -13.7701  -23.9283 C   0  0  0  0  0  0  0  0  0  0  0  0
   28.4348  -13.8136  -24.0761 C   0  0  0  0  0  0  0  0  0  0  0  0
   29.1078  -14.6501  -23.4270 O   0  0  0  0  0  0  0  0  0  0  0  0
   29.0009  -12.8722  -24.9753 N   0  0  0  0  0  0  0  0  0  0  0  0
   28.1958  -11.8922  -25.7028 C   0  0  0  0  0  0  0  0  0  0  0  0
   28.3345  -12.0517  -27.1925 C   0  0  0  0  0  0  0  0  0  0  0  0
   29.6551  -12.4590  -27.6038 N   0  0  0  0  0  0  0  0  0  0  0  0
   30.6373  -12.8121  -26.7523 C   0  0  0  0  0  0  0  0  0  0  0  0
   31.6988  -13.1172  -27.5352 N   0  0  0  0  0  0  0  0  0  0  0  0
   31.4050  -12.9678  -28.7943 N   0  0  0  0  0  0  0  0  0  0  0  0
   30.1309  -12.5560  -28.8783 C   0  0  0  0  0  0  0  0  0  0  0  0
   29.3969  -12.2785  -30.1449 C   0  0  0  0  0  0  0  0  0  0  0  0
   28.0126  -12.8525  -30.2492 C   0  0  0  0  0  0  0  0  0  0  0  0
   28.1750  -11.4747  -30.1169 C   0  0  0  0  0  0  0  0  0  0  0  0
   30.4382  -12.8205  -25.2593 C   0  0  0  0  0  0  0  0  0  0  0  0
   26.2642  -14.2437  -25.0402 C   0  0  0  0  0  0  0  0  0  0  0  0
   24.8918  -14.2408  -24.9859 C   0  0  0  0  0  0  0  0  0  0  0  0
   20.5247  -14.2583  -22.9913 C   0  0  0  0  0  0  0  0  0  0  0  0
   19.7856  -13.9770  -23.9684 O   0  0  0  0  0  0  0  0  0  0  0  0
  1  2  1  0
  2  3  2  0
  2  4  1  0
  4  5  2  0
  5  6  1  0
  6  7  2  0
  7  8  1  0
  8  9  2  0
  9 10  1  0
 10 11  1  0
 11 12  2  0
 12 13  1  0
 13 14  2  0
 14 15  1  0
 15 16  2  0
 16 17  1  0
 17 18  2  0
 17 19  1  0
 19 20  1  0
 20 21  1  0
 21 22  1  0
 22 23  1  0
 23 24  2  0
 24 25  1  0
 25 26  2  0
 26 27  1  0
 27 28  1  0
 28 29  2  0
 23 30  1  0
 16 31  1  0
 31 32  2  0
 11 33  1  0
 33 34  2  0
  9  4  1  0
 32 13  1  0
 33  8  1  0
 30 19  1  0
 26 22  1  0
 29 27  1  0
M  END
>  <shape_align_shape_tanimoto>  (3) 
0.57343097723416159

>  <shape_align_color_tanimoto>  (3) 
0.11973827128353851

>  <metric>  (3) 
combo

>  <metric_score>  (3) 
0.347

>  <template_pid>  (3) 
6NRI

>  <template_shape_score>  (3) 
0.573

>  <template_color_score>  (3) 
0.120

>  <template_combo_score>  (3) 
0.347

$$$$
