3HKQ_shape_pose
     RDKit          3D

 15 15  0  0  0  0  0  0  0  0999 V2000
   -1.4848    5.0468   13.6566 N   0  0  0  0  0  0  0  0  0  0  0  0
   -3.1304    5.4152   13.3376 S   0  0  0  0  0  0  0  0  0  0  0  0
   -3.4198    5.0450   11.8922 O   0  0  0  0  0  0  0  0  0  0  0  0
   -3.4781    6.8481   13.5354 O   0  0  0  0  0  0  0  0  0  0  0  0
   -4.1982    4.4432   14.3345 C   0  0  2  0  0  0  0  0  0  0  0  0
   -3.9872    4.6900   15.6663 O   0  0  0  0  0  0  0  0  0  0  0  0
   -4.9070    4.1102   16.5079 C   0  0  2  0  0  0  0  0  0  0  0  0
   -4.1498    3.4817   17.6655 C   0  0  0  0  0  0  0  0  0  0  0  0
   -5.0040    2.8612   18.5842 O   0  0  0  0  0  0  0  0  0  0  0  0
   -5.8123    3.1149   15.8763 C   0  0  2  0  0  0  0  0  0  0  0  0
   -6.1653    2.1917   16.8712 O   0  0  0  0  0  0  0  0  0  0  0  0
   -5.2416    2.3151   14.7516 C   0  0  2  0  0  0  0  0  0  0  0  0
   -4.9971    0.9827   15.0962 O   0  0  0  0  0  0  0  0  0  0  0  0
   -3.9823    2.9501   14.1502 C   0  0  1  0  0  0  0  0  0  0  0  0
   -3.8068    2.6111   12.8245 O   0  0  0  0  0  0  0  0  0  0  0  0
  1  2  1  0
  2  3  2  0
  2  4  2  0
  5  2  1  6
  5  6  1  0
  6  7  1  0
  7  8  1  1
  8  9  1  0
  7 10  1  0
 10 11  1  1
 10 12  1  0
 12 13  1  1
 12 14  1  0
 14 15  1  6
 14  5  1  0
M  END
>  <shape_align_shape_tanimoto>  (1) 
0.70393425055974246

>  <shape_align_color_tanimoto>  (1) 
0.11050292608714712

>  <metric>  (1) 
shape

>  <metric_score>  (1) 
0.704

>  <template_pid>  (1) 
3HKQ

>  <template_shape_score>  (1) 
0.704

>  <template_color_score>  (1) 
0.111

>  <template_combo_score>  (1) 
0.407

$$$$
3HKQ_color_pose
     RDKit          3D

 15 15  0  0  0  0  0  0  0  0999 V2000
   -3.5772    6.2656   17.9965 N   0  0  0  0  0  0  0  0  0  0  0  0
   -2.7318    4.7613   17.9322 S   0  0  0  0  0  0  0  0  0  0  0  0
   -2.7359    4.1954   19.3332 O   0  0  0  0  0  0  0  0  0  0  0  0
   -1.3177    4.9010   17.4919 O   0  0  0  0  0  0  0  0  0  0  0  0
   -3.5654    3.5918   16.8944 C   0  0  2  0  0  0  0  0  0  0  0  0
   -3.6504    4.0302   15.5763 O   0  0  0  0  0  0  0  0  0  0  0  0
   -4.0645    2.9377   14.8131 C   0  0  2  0  0  0  0  0  0  0  0  0
   -4.0712    3.2838   13.3428 C   0  0  0  0  0  0  0  0  0  0  0  0
   -4.4818    2.1975   12.5984 O   0  0  0  0  0  0  0  0  0  0  0  0
   -5.3984    2.3891   15.2680 C   0  0  2  0  0  0  0  0  0  0  0  0
   -6.2961    2.2451   14.2228 O   0  0  0  0  0  0  0  0  0  0  0  0
   -5.9277    3.3296   16.3374 C   0  0  2  0  0  0  0  0  0  0  0  0
   -5.8202    4.6340   15.8307 O   0  0  0  0  0  0  0  0  0  0  0  0
   -4.9344    3.2403   17.4774 C   0  0  1  0  0  0  0  0  0  0  0  0
   -4.9741    1.9490   17.9787 O   0  0  0  0  0  0  0  0  0  0  0  0
  1  2  1  0
  2  3  2  0
  2  4  2  0
  5  2  1  1
  5  6  1  0
  6  7  1  0
  7  8  1  6
  8  9  1  0
  7 10  1  0
 10 11  1  6
 10 12  1  0
 12 13  1  6
 12 14  1  0
 14 15  1  6
 14  5  1  0
M  END
>  <shape_align_shape_tanimoto>  (2) 
0.69395563870112598

>  <shape_align_color_tanimoto>  (2) 
0.1428228062409708

>  <metric>  (2) 
color

>  <metric_score>  (2) 
0.143

>  <template_pid>  (2) 
3HKQ

>  <template_shape_score>  (2) 
0.694

>  <template_color_score>  (2) 
0.143

>  <template_combo_score>  (2) 
0.418

$$$$
3HKQ_combo_pose
     RDKit          3D

 15 15  0  0  0  0  0  0  0  0999 V2000
   -3.5772    6.2656   17.9965 N   0  0  0  0  0  0  0  0  0  0  0  0
   -2.7318    4.7613   17.9322 S   0  0  0  0  0  0  0  0  0  0  0  0
   -2.7359    4.1954   19.3332 O   0  0  0  0  0  0  0  0  0  0  0  0
   -1.3177    4.9010   17.4919 O   0  0  0  0  0  0  0  0  0  0  0  0
   -3.5654    3.5918   16.8944 C   0  0  2  0  0  0  0  0  0  0  0  0
   -3.6504    4.0302   15.5763 O   0  0  0  0  0  0  0  0  0  0  0  0
   -4.0645    2.9377   14.8131 C   0  0  2  0  0  0  0  0  0  0  0  0
   -4.0712    3.2838   13.3428 C   0  0  0  0  0  0  0  0  0  0  0  0
   -4.4818    2.1975   12.5984 O   0  0  0  0  0  0  0  0  0  0  0  0
   -5.3984    2.3891   15.2680 C   0  0  2  0  0  0  0  0  0  0  0  0
   -6.2961    2.2451   14.2228 O   0  0  0  0  0  0  0  0  0  0  0  0
   -5.9277    3.3296   16.3374 C   0  0  2  0  0  0  0  0  0  0  0  0
   -5.8202    4.6340   15.8307 O   0  0  0  0  0  0  0  0  0  0  0  0
   -4.9344    3.2403   17.4774 C   0  0  1  0  0  0  0  0  0  0  0  0
   -4.9741    1.9490   17.9787 O   0  0  0  0  0  0  0  0  0  0  0  0
  1  2  1  0
  2  3  2  0
  2  4  2  0
  5  2  1  1
  5  6  1  0
  6  7  1  0
  7  8  1  6
  8  9  1  0
  7 10  1  0
 10 11  1  6
 10 12  1  0
 12 13  1  6
 12 14  1  0
 14 15  1  6
 14  5  1  0
M  END
>  <shape_align_shape_tanimoto>  (3) 
0.69395563870112598

>  <shape_align_color_tanimoto>  (3) 
0.1428228062409708

>  <metric>  (3) 
combo

>  <metric_score>  (3) 
0.418

>  <template_pid>  (3) 
3HKQ

>  <template_shape_score>  (3) 
0.694

>  <template_color_score>  (3) 
0.143

>  <template_combo_score>  (3) 
0.418

$$$$
