5WMG_shape_pose
     RDKit          3D

 33 37  0  0  0  0  0  0  0  0999 V2000
   13.3992  -14.1007   -1.6148 C   0  0  0  0  0  0  0  0  0  0  0  0
   13.8449  -13.8990   -3.0210 C   0  0  0  0  0  0  0  0  0  0  0  0
   14.2051  -14.7913   -3.9458 N   0  0  0  0  0  0  0  0  0  0  0  0
   14.5286  -14.1983   -5.0555 O   0  0  0  0  0  0  0  0  0  0  0  0
   14.3884  -12.8859   -4.8891 C   0  0  0  0  0  0  0  0  0  0  0  0
   14.6550  -11.8367   -5.9162 C   0  0  0  0  0  0  0  0  0  0  0  0
   13.9527  -12.6474   -3.6019 C   0  0  0  0  0  0  0  0  0  0  0  0
   13.6567  -11.3713   -2.9509 C   0  0  0  0  0  0  0  0  0  0  0  0
   14.6065  -10.6489   -2.2599 C   0  0  0  0  0  0  0  0  0  0  0  0
   14.2302   -9.4718   -1.6893 N   0  0  0  0  0  0  0  0  0  0  0  0
   12.9647   -9.0181   -1.7928 C   0  0  0  0  0  0  0  0  0  0  0  0
   12.3282   -7.8862   -1.3234 C   0  0  0  0  0  0  0  0  0  0  0  0
   13.0117   -6.8630   -0.5357 C   0  0  0  0  0  0  0  0  0  0  0  0
   12.4601   -6.3077    0.6072 C   0  0  0  0  0  0  0  0  0  0  0  0
   13.1352   -5.3314    1.3412 C   0  0  0  0  0  0  0  0  0  0  0  0
   14.3780   -4.9295    0.8951 C   0  0  0  0  0  0  0  0  0  0  0  0
   15.1114   -3.9051    1.6458 C   0  0  0  0  0  0  0  0  0  0  0  0
   14.6139   -3.3983    2.6844 O   0  0  0  0  0  0  0  0  0  0  0  0
   16.3596   -3.4871    1.2163 O   0  0  0  0  0  0  0  0  0  0  0  0
   14.9460   -5.4726   -0.2448 C   0  0  0  0  0  0  0  0  0  0  0  0
   14.2610   -6.4413   -0.9612 C   0  0  0  0  0  0  0  0  0  0  0  0
   11.0116   -7.9395   -1.7342 C   0  0  0  0  0  0  0  0  0  0  0  0
   10.8171   -9.0685   -2.4418 N   0  0  0  0  0  0  0  0  0  0  0  0
    9.5947   -9.5494   -3.0722 C   0  0  1  0  0  0  0  0  0  0  0  0
    8.4268   -9.1523   -2.2185 C   0  0  0  0  0  0  0  0  0  0  0  0
    9.5247   -8.8931   -4.4121 C   0  0  0  0  0  0  0  0  0  0  0  0
    8.8981   -7.6756   -4.6095 C   0  0  0  0  0  0  0  0  0  0  0  0
    8.8999   -7.1676   -5.9048 C   0  0  0  0  0  0  0  0  0  0  0  0
    9.5037   -7.8630   -6.9252 C   0  0  0  0  0  0  0  0  0  0  0  0
   10.1235   -9.0754   -6.7095 C   0  0  0  0  0  0  0  0  0  0  0  0
   10.1116   -9.5496   -5.4534 N   0  0  0  0  0  0  0  0  0  0  0  0
   12.0011   -9.7285   -2.4809 C   0  0  0  0  0  0  0  0  0  0  0  0
   12.3370  -10.9276   -3.0759 C   0  0  0  0  0  0  0  0  0  0  0  0
  1  2  1  0
  2  3  2  0
  3  4  1  0
  4  5  1  0
  5  6  1  0
  5  7  2  0
  7  8  1  0
  8  9  2  0
  9 10  1  0
 10 11  2  0
 11 12  1  0
 12 13  1  0
 13 14  2  0
 14 15  1  0
 15 16  2  0
 16 17  1  0
 17 18  2  0
 17 19  1  0
 16 20  1  0
 20 21  2  0
 12 22  2  0
 22 23  1  0
 23 24  1  0
 24 25  1  1
 24 26  1  0
 26 27  2  0
 27 28  1  0
 28 29  2  0
 29 30  1  0
 30 31  2  0
 23 32  1  0
 32 33  2  0
  7  2  1  0
 33  8  1  0
 32 11  1  0
 21 13  1  0
 31 26  1  0
M  CHG  1  19  -1
M  END
>  <shape_align_shape_tanimoto>  (1) 
0.5618889078459387

>  <shape_align_color_tanimoto>  (1) 
0.074469099973197894

>  <metric>  (1) 
shape

>  <metric_score>  (1) 
0.562

>  <template_pid>  (1) 
5WMG

>  <template_shape_score>  (1) 
0.562

>  <template_color_score>  (1) 
0.074

>  <template_combo_score>  (1) 
0.318

$$$$
5WMG_color_pose
     RDKit          3D

 33 37  0  0  0  0  0  0  0  0999 V2000
    8.2848  -13.0614    1.6285 C   0  0  0  0  0  0  0  0  0  0  0  0
    9.1729  -14.0302    0.9602 C   0  0  0  0  0  0  0  0  0  0  0  0
    9.1470  -15.3784    0.9922 N   0  0  0  0  0  0  0  0  0  0  0  0
   10.1094  -15.8823    0.2631 O   0  0  0  0  0  0  0  0  0  0  0  0
   10.7936  -14.9231   -0.2673 C   0  0  0  0  0  0  0  0  0  0  0  0
   11.9852  -15.0698   -1.1744 C   0  0  0  0  0  0  0  0  0  0  0  0
   10.2549  -13.7164    0.1324 C   0  0  0  0  0  0  0  0  0  0  0  0
   10.6828  -12.3583   -0.2062 C   0  0  0  0  0  0  0  0  0  0  0  0
   11.6092  -11.6613    0.5529 C   0  0  0  0  0  0  0  0  0  0  0  0
   11.9933  -10.4024    0.2225 N   0  0  0  0  0  0  0  0  0  0  0  0
   11.4617   -9.8360   -0.8558 C   0  0  0  0  0  0  0  0  0  0  0  0
   11.6841   -8.5836   -1.3952 C   0  0  0  0  0  0  0  0  0  0  0  0
   12.6035   -7.5627   -0.8609 C   0  0  0  0  0  0  0  0  0  0  0  0
   13.4135   -6.9218   -1.7800 C   0  0  0  0  0  0  0  0  0  0  0  0
   14.2948   -5.9492   -1.2999 C   0  0  0  0  0  0  0  0  0  0  0  0
   14.3522   -5.6411    0.0466 C   0  0  0  0  0  0  0  0  0  0  0  0
   15.2908   -4.6234    0.4594 C   0  0  0  0  0  0  0  0  0  0  0  0
   16.0503   -4.0124   -0.3476 O   0  0  0  0  0  0  0  0  0  0  0  0
   15.4185   -4.2447    1.8066 O   0  0  0  0  0  0  0  0  0  0  0  0
   13.5267   -6.3036    0.9329 C   0  0  0  0  0  0  0  0  0  0  0  0
   12.6322   -7.2823    0.4912 C   0  0  0  0  0  0  0  0  0  0  0  0
   10.8819   -8.4897   -2.5164 C   0  0  0  0  0  0  0  0  0  0  0  0
   10.1883   -9.6322   -2.6719 N   0  0  0  0  0  0  0  0  0  0  0  0
    9.2470   -9.8892   -3.7431 C   0  0  1  0  0  0  0  0  0  0  0  0
    7.8325   -9.8314   -3.2205 C   0  0  0  0  0  0  0  0  0  0  0  0
    9.4764   -8.9328   -4.8502 C   0  0  0  0  0  0  0  0  0  0  0  0
    8.8110   -7.7264   -4.8708 C   0  0  0  0  0  0  0  0  0  0  0  0
    9.0168   -6.8129   -5.9091 C   0  0  0  0  0  0  0  0  0  0  0  0
    9.9213   -7.1915   -6.9054 C   0  0  0  0  0  0  0  0  0  0  0  0
   10.5761   -8.4155   -6.8553 C   0  0  0  0  0  0  0  0  0  0  0  0
   10.3463   -9.2696   -5.8306 N   0  0  0  0  0  0  0  0  0  0  0  0
   10.5244  -10.4718   -1.6700 C   0  0  0  0  0  0  0  0  0  0  0  0
   10.1353  -11.7597   -1.3268 C   0  0  0  0  0  0  0  0  0  0  0  0
  1  2  1  0
  2  3  2  0
  3  4  1  0
  4  5  1  0
  5  6  1  0
  5  7  2  0
  7  8  1  0
  8  9  2  0
  9 10  1  0
 10 11  2  0
 11 12  1  0
 12 13  1  0
 13 14  2  0
 14 15  1  0
 15 16  2  0
 16 17  1  0
 17 18  2  0
 17 19  1  0
 16 20  1  0
 20 21  2  0
 12 22  2  0
 22 23  1  0
 23 24  1  0
 24 25  1  1
 24 26  1  0
 26 27  2  0
 27 28  1  0
 28 29  2  0
 29 30  1  0
 30 31  2  0
 23 32  1  0
 32 33  2  0
  7  2  1  0
 33  8  1  0
 32 11  1  0
 21 13  1  0
 31 26  1  0
M  CHG  1  19  -1
M  END
>  <shape_align_shape_tanimoto>  (2) 
0.51467443318569006

>  <shape_align_color_tanimoto>  (2) 
0.092612070834492841

>  <metric>  (2) 
color

>  <metric_score>  (2) 
0.093

>  <template_pid>  (2) 
5WMG

>  <template_shape_score>  (2) 
0.515

>  <template_color_score>  (2) 
0.093

>  <template_combo_score>  (2) 
0.304

$$$$
5WMG_combo_pose
     RDKit          3D

 33 37  0  0  0  0  0  0  0  0999 V2000
   13.3992  -14.1007   -1.6148 C   0  0  0  0  0  0  0  0  0  0  0  0
   13.8449  -13.8990   -3.0210 C   0  0  0  0  0  0  0  0  0  0  0  0
   14.2051  -14.7913   -3.9458 N   0  0  0  0  0  0  0  0  0  0  0  0
   14.5286  -14.1983   -5.0555 O   0  0  0  0  0  0  0  0  0  0  0  0
   14.3884  -12.8859   -4.8891 C   0  0  0  0  0  0  0  0  0  0  0  0
   14.6550  -11.8367   -5.9162 C   0  0  0  0  0  0  0  0  0  0  0  0
   13.9527  -12.6474   -3.6019 C   0  0  0  0  0  0  0  0  0  0  0  0
   13.6567  -11.3713   -2.9509 C   0  0  0  0  0  0  0  0  0  0  0  0
   14.6065  -10.6489   -2.2599 C   0  0  0  0  0  0  0  0  0  0  0  0
   14.2302   -9.4718   -1.6893 N   0  0  0  0  0  0  0  0  0  0  0  0
   12.9647   -9.0181   -1.7928 C   0  0  0  0  0  0  0  0  0  0  0  0
   12.3282   -7.8862   -1.3234 C   0  0  0  0  0  0  0  0  0  0  0  0
   13.0117   -6.8630   -0.5357 C   0  0  0  0  0  0  0  0  0  0  0  0
   12.4601   -6.3077    0.6072 C   0  0  0  0  0  0  0  0  0  0  0  0
   13.1352   -5.3314    1.3412 C   0  0  0  0  0  0  0  0  0  0  0  0
   14.3780   -4.9295    0.8951 C   0  0  0  0  0  0  0  0  0  0  0  0
   15.1114   -3.9051    1.6458 C   0  0  0  0  0  0  0  0  0  0  0  0
   14.6139   -3.3983    2.6844 O   0  0  0  0  0  0  0  0  0  0  0  0
   16.3596   -3.4871    1.2163 O   0  0  0  0  0  0  0  0  0  0  0  0
   14.9460   -5.4726   -0.2448 C   0  0  0  0  0  0  0  0  0  0  0  0
   14.2610   -6.4413   -0.9612 C   0  0  0  0  0  0  0  0  0  0  0  0
   11.0116   -7.9395   -1.7342 C   0  0  0  0  0  0  0  0  0  0  0  0
   10.8171   -9.0685   -2.4418 N   0  0  0  0  0  0  0  0  0  0  0  0
    9.5947   -9.5494   -3.0722 C   0  0  1  0  0  0  0  0  0  0  0  0
    8.4268   -9.1523   -2.2185 C   0  0  0  0  0  0  0  0  0  0  0  0
    9.5247   -8.8931   -4.4121 C   0  0  0  0  0  0  0  0  0  0  0  0
    8.8981   -7.6756   -4.6095 C   0  0  0  0  0  0  0  0  0  0  0  0
    8.8999   -7.1676   -5.9048 C   0  0  0  0  0  0  0  0  0  0  0  0
    9.5037   -7.8630   -6.9252 C   0  0  0  0  0  0  0  0  0  0  0  0
   10.1235   -9.0754   -6.7095 C   0  0  0  0  0  0  0  0  0  0  0  0
   10.1116   -9.5496   -5.4534 N   0  0  0  0  0  0  0  0  0  0  0  0
   12.0011   -9.7285   -2.4809 C   0  0  0  0  0  0  0  0  0  0  0  0
   12.3370  -10.9276   -3.0759 C   0  0  0  0  0  0  0  0  0  0  0  0
  1  2  1  0
  2  3  2  0
  3  4  1  0
  4  5  1  0
  5  6  1  0
  5  7  2  0
  7  8  1  0
  8  9  2  0
  9 10  1  0
 10 11  2  0
 11 12  1  0
 12 13  1  0
 13 14  2  0
 14 15  1  0
 15 16  2  0
 16 17  1  0
 17 18  2  0
 17 19  1  0
 16 20  1  0
 20 21  2  0
 12 22  2  0
 22 23  1  0
 23 24  1  0
 24 25  1  1
 24 26  1  0
 26 27  2  0
 27 28  1  0
 28 29  2  0
 29 30  1  0
 30 31  2  0
 23 32  1  0
 32 33  2  0
  7  2  1  0
 33  8  1  0
 32 11  1  0
 21 13  1  0
 31 26  1  0
M  CHG  1  19  -1
M  END
>  <shape_align_shape_tanimoto>  (3) 
0.5618889078459387

>  <shape_align_color_tanimoto>  (3) 
0.074469099973197894

>  <metric>  (3) 
combo

>  <metric_score>  (3) 
0.318

>  <template_pid>  (3) 
5WMG

>  <template_shape_score>  (3) 
0.562

>  <template_color_score>  (3) 
0.074

>  <template_combo_score>  (3) 
0.318

$$$$
