4UXL_shape_pose
     RDKit          3D

 30 33  0  0  0  0  0  0  0  0999 V2000
  -42.5345  -50.8224  -14.7641 C   0  0  0  0  0  0  0  0  0  0  0  0
  -41.6439  -51.1043  -13.5085 C   0  0  1  0  0  0  0  0  0  0  0  0
  -41.1443  -50.0474  -12.9708 O   0  0  0  0  0  0  0  0  0  0  0  0
  -40.6428  -48.9866  -12.4311 C   0  0  0  0  0  0  0  0  0  0  0  0
  -41.4631  -48.2927  -11.5211 C   0  0  0  0  0  0  0  0  0  0  0  0
  -41.1621  -47.2002  -10.7923 C   0  0  0  0  0  0  0  0  0  0  0  0
  -39.9327  -46.6288  -10.9260 C   0  0  0  0  0  0  0  0  0  0  0  0
  -39.1056  -47.2331  -11.7924 N   0  0  0  0  0  0  0  0  0  0  0  0
  -39.3966  -48.3460  -12.5211 C   0  0  0  0  0  0  0  0  0  0  0  0
  -38.4762  -48.9384  -13.4191 N   0  0  0  0  0  0  0  0  0  0  0  0
  -42.1146  -46.8904   -9.7246 C   0  0  0  0  0  0  0  0  0  0  0  0
  -42.7040  -47.9959   -8.9597 C   0  0  0  0  0  0  0  0  0  0  0  0
  -43.4967  -47.3467   -8.1054 N   0  0  0  0  0  0  0  0  0  0  0  0
  -43.4298  -46.0441   -8.2844 N   0  0  0  0  0  0  0  0  0  0  0  0
  -44.1705  -45.0709   -7.5133 C   0  0  0  0  0  0  0  0  0  0  0  0
  -42.5808  -45.7254   -9.2801 C   0  0  0  0  0  0  0  0  0  0  0  0
  -42.1734  -44.4538   -9.8132 C   0  0  0  0  0  0  0  0  0  0  0  0
  -41.8568  -43.4159  -10.2318 N   0  0  0  0  0  0  0  0  0  0  0  0
  -42.2002  -49.2556   -9.3811 C   0  0  0  0  0  0  0  0  0  0  0  0
  -42.6339  -50.5306   -9.7048 N   0  0  0  0  0  0  0  0  0  0  0  0
  -42.5694  -51.7117   -8.8121 C   0  0  0  0  0  0  0  0  0  0  0  0
  -43.2698  -50.8981  -10.9352 C   0  0  0  0  0  0  0  0  0  0  0  0
  -43.9592  -50.0764  -11.4778 O   0  0  0  0  0  0  0  0  0  0  0  0
  -43.1876  -52.1363  -11.6825 C   0  0  0  0  0  0  0  0  0  0  0  0
  -43.9315  -53.1589  -11.1744 C   0  0  0  0  0  0  0  0  0  0  0  0
  -43.9309  -54.3575  -11.8086 C   0  0  0  0  0  0  0  0  0  0  0  0
  -43.1556  -54.4680  -12.9621 C   0  0  0  0  0  0  0  0  0  0  0  0
  -43.1440  -55.6788  -13.6150 F   0  0  0  0  0  0  0  0  0  0  0  0
  -42.4110  -53.4211  -13.4636 C   0  0  0  0  0  0  0  0  0  0  0  0
  -42.4102  -52.1635  -12.8023 C   0  0  0  0  0  0  0  0  0  0  0  0
  2  1  1  6
  2  3  1  0
  3  4  1  0
  4  5  1  0
  5  6  2  0
  6  7  1  0
  7  8  2  0
  8  9  1  0
  9 10  1  0
  6 11  1  0
 11 12  1  0
 12 13  2  0
 13 14  1  0
 14 15  1  0
 14 16  1  0
 16 17  1  0
 17 18  3  0
 12 19  1  0
 19 20  1  0
 20 21  1  0
 20 22  1  0
 22 23  2  0
 22 24  1  0
 24 25  2  0
 25 26  1  0
 26 27  2  0
 27 28  1  0
 27 29  1  0
 29 30  2  0
 30  2  1  0
  9  4  2  0
 16 11  2  0
 30 24  1  0
M  END
>  <shape_align_shape_tanimoto>  (1) 
0.54112828812552394

>  <shape_align_color_tanimoto>  (1) 
0.047671847125017791

>  <metric>  (1) 
shape

>  <metric_score>  (1) 
0.541

>  <template_pid>  (1) 
4UXL

>  <template_shape_score>  (1) 
0.541

>  <template_color_score>  (1) 
0.048

>  <template_combo_score>  (1) 
0.294

$$$$
4UXL_color_pose
     RDKit          3D

 30 33  0  0  0  0  0  0  0  0999 V2000
  -41.7245  -45.0646  -10.9885 C   0  0  0  0  0  0  0  0  0  0  0  0
  -42.3605  -46.4409  -10.8028 C   0  0  1  0  0  0  0  0  0  0  0  0
  -41.7095  -47.4187  -11.3219 O   0  0  0  0  0  0  0  0  0  0  0  0
  -41.0546  -48.4059  -11.8472 C   0  0  0  0  0  0  0  0  0  0  0  0
  -41.8391  -49.5985  -11.9126 C   0  0  0  0  0  0  0  0  0  0  0  0
  -41.3654  -50.7580  -12.3763 C   0  0  0  0  0  0  0  0  0  0  0  0
  -40.0928  -50.8538  -12.8372 C   0  0  0  0  0  0  0  0  0  0  0  0
  -39.3198  -49.7593  -12.8096 N   0  0  0  0  0  0  0  0  0  0  0  0
  -39.7856  -48.5937  -12.3340 C   0  0  0  0  0  0  0  0  0  0  0  0
  -38.9487  -47.4106  -12.3005 N   0  0  0  0  0  0  0  0  0  0  0  0
  -42.2797  -51.9074  -12.1614 C   0  0  0  0  0  0  0  0  0  0  0  0
  -42.9566  -52.1478  -11.0308 C   0  0  0  0  0  0  0  0  0  0  0  0
  -43.6737  -53.3333  -11.3816 N   0  0  0  0  0  0  0  0  0  0  0  0
  -43.4051  -53.6851  -12.5706 N   0  0  0  0  0  0  0  0  0  0  0  0
  -43.9596  -54.8442  -13.2606 C   0  0  0  0  0  0  0  0  0  0  0  0
  -42.5346  -52.8554  -13.1552 C   0  0  0  0  0  0  0  0  0  0  0  0
  -41.9716  -52.9025  -14.4737 C   0  0  0  0  0  0  0  0  0  0  0  0
  -41.5156  -52.9608  -15.5580 N   0  0  0  0  0  0  0  0  0  0  0  0
  -43.0881  -51.5862   -9.7125 C   0  0  0  0  0  0  0  0  0  0  0  0
  -43.2280  -50.2316   -9.3672 N   0  0  0  0  0  0  0  0  0  0  0  0
  -44.5956  -49.6723   -9.3804 C   0  0  0  0  0  0  0  0  0  0  0  0
  -42.2809  -49.2472   -8.9658 C   0  0  0  0  0  0  0  0  0  0  0  0
  -41.1373  -49.6324   -8.8783 O   0  0  0  0  0  0  0  0  0  0  0  0
  -42.5440  -47.8471   -8.6422 C   0  0  0  0  0  0  0  0  0  0  0  0
  -42.7770  -47.7589   -7.2311 C   0  0  0  0  0  0  0  0  0  0  0  0
  -43.0483  -46.6114   -6.5753 C   0  0  0  0  0  0  0  0  0  0  0  0
  -43.1078  -45.4428   -7.2921 C   0  0  0  0  0  0  0  0  0  0  0  0
  -43.3770  -44.2732   -6.6768 F   0  0  0  0  0  0  0  0  0  0  0  0
  -42.8853  -45.5177   -8.6359 C   0  0  0  0  0  0  0  0  0  0  0  0
  -42.6014  -46.7132   -9.3247 C   0  0  0  0  0  0  0  0  0  0  0  0
  2  1  1  1
  2  3  1  0
  3  4  1  0
  4  5  1  0
  5  6  2  0
  6  7  1  0
  7  8  2  0
  8  9  1  0
  9 10  1  0
  6 11  1  0
 11 12  1  0
 12 13  2  0
 13 14  1  0
 14 15  1  0
 14 16  1  0
 16 17  1  0
 17 18  3  0
 12 19  1  0
 19 20  1  0
 20 21  1  0
 20 22  1  0
 22 23  2  0
 22 24  1  0
 24 25  2  0
 25 26  1  0
 26 27  2  0
 27 28  1  0
 27 29  1  0
 29 30  2  0
 30  2  1  0
  9  4  2  0
 16 11  2  0
 30 24  1  0
M  END
>  <shape_align_shape_tanimoto>  (2) 
0.4937068069162297

>  <shape_align_color_tanimoto>  (2) 
0.10280012160735125

>  <metric>  (2) 
color

>  <metric_score>  (2) 
0.103

>  <template_pid>  (2) 
4UXL

>  <template_shape_score>  (2) 
0.494

>  <template_color_score>  (2) 
0.103

>  <template_combo_score>  (2) 
0.298

$$$$
4UXL_combo_pose
     RDKit          3D

 30 33  0  0  0  0  0  0  0  0999 V2000
  -41.7245  -45.0646  -10.9885 C   0  0  0  0  0  0  0  0  0  0  0  0
  -42.3605  -46.4409  -10.8028 C   0  0  1  0  0  0  0  0  0  0  0  0
  -41.7095  -47.4187  -11.3219 O   0  0  0  0  0  0  0  0  0  0  0  0
  -41.0546  -48.4059  -11.8472 C   0  0  0  0  0  0  0  0  0  0  0  0
  -41.8391  -49.5985  -11.9126 C   0  0  0  0  0  0  0  0  0  0  0  0
  -41.3654  -50.7580  -12.3763 C   0  0  0  0  0  0  0  0  0  0  0  0
  -40.0928  -50.8538  -12.8372 C   0  0  0  0  0  0  0  0  0  0  0  0
  -39.3198  -49.7593  -12.8096 N   0  0  0  0  0  0  0  0  0  0  0  0
  -39.7856  -48.5937  -12.3340 C   0  0  0  0  0  0  0  0  0  0  0  0
  -38.9487  -47.4106  -12.3005 N   0  0  0  0  0  0  0  0  0  0  0  0
  -42.2797  -51.9074  -12.1614 C   0  0  0  0  0  0  0  0  0  0  0  0
  -42.9566  -52.1478  -11.0308 C   0  0  0  0  0  0  0  0  0  0  0  0
  -43.6737  -53.3333  -11.3816 N   0  0  0  0  0  0  0  0  0  0  0  0
  -43.4051  -53.6851  -12.5706 N   0  0  0  0  0  0  0  0  0  0  0  0
  -43.9596  -54.8442  -13.2606 C   0  0  0  0  0  0  0  0  0  0  0  0
  -42.5346  -52.8554  -13.1552 C   0  0  0  0  0  0  0  0  0  0  0  0
  -41.9716  -52.9025  -14.4737 C   0  0  0  0  0  0  0  0  0  0  0  0
  -41.5156  -52.9608  -15.5580 N   0  0  0  0  0  0  0  0  0  0  0  0
  -43.0881  -51.5862   -9.7125 C   0  0  0  0  0  0  0  0  0  0  0  0
  -43.2280  -50.2316   -9.3672 N   0  0  0  0  0  0  0  0  0  0  0  0
  -44.5956  -49.6723   -9.3804 C   0  0  0  0  0  0  0  0  0  0  0  0
  -42.2809  -49.2472   -8.9658 C   0  0  0  0  0  0  0  0  0  0  0  0
  -41.1373  -49.6324   -8.8783 O   0  0  0  0  0  0  0  0  0  0  0  0
  -42.5440  -47.8471   -8.6422 C   0  0  0  0  0  0  0  0  0  0  0  0
  -42.7770  -47.7589   -7.2311 C   0  0  0  0  0  0  0  0  0  0  0  0
  -43.0483  -46.6114   -6.5753 C   0  0  0  0  0  0  0  0  0  0  0  0
  -43.1078  -45.4428   -7.2921 C   0  0  0  0  0  0  0  0  0  0  0  0
  -43.3770  -44.2732   -6.6768 F   0  0  0  0  0  0  0  0  0  0  0  0
  -42.8853  -45.5177   -8.6359 C   0  0  0  0  0  0  0  0  0  0  0  0
  -42.6014  -46.7132   -9.3247 C   0  0  0  0  0  0  0  0  0  0  0  0
  2  1  1  1
  2  3  1  0
  3  4  1  0
  4  5  1  0
  5  6  2  0
  6  7  1  0
  7  8  2  0
  8  9  1  0
  9 10  1  0
  6 11  1  0
 11 12  1  0
 12 13  2  0
 13 14  1  0
 14 15  1  0
 14 16  1  0
 16 17  1  0
 17 18  3  0
 12 19  1  0
 19 20  1  0
 20 21  1  0
 20 22  1  0
 22 23  2  0
 22 24  1  0
 24 25  2  0
 25 26  1  0
 26 27  2  0
 27 28  1  0
 27 29  1  0
 29 30  2  0
 30  2  1  0
  9  4  2  0
 16 11  2  0
 30 24  1  0
M  END
>  <shape_align_shape_tanimoto>  (3) 
0.4937068069162297

>  <shape_align_color_tanimoto>  (3) 
0.10280012160735125

>  <metric>  (3) 
combo

>  <metric_score>  (3) 
0.298

>  <template_pid>  (3) 
4UXL

>  <template_shape_score>  (3) 
0.494

>  <template_color_score>  (3) 
0.103

>  <template_combo_score>  (3) 
0.298

$$$$
