2P4S_shape_pose
     RDKit          3D

 19 21  0  0  0  0  0  0  0  0999 V2000
   50.1904   48.7781   25.6435 O   0  0  0  0  0  0  0  0  0  0  0  0
   51.1879   48.2441   26.2322 C   0  0  0  0  0  0  0  0  0  0  0  0
   50.9971   47.4918   27.3457 N   0  0  0  0  0  0  0  0  0  0  0  0
   52.0164   46.9113   27.9973 C   0  0  0  0  0  0  0  0  0  0  0  0
   53.2869   47.0707   27.5422 N   0  0  0  0  0  0  0  0  0  0  0  0
   53.5192   47.8056   26.4462 C   0  0  0  0  0  0  0  0  0  0  0  0
   54.6922   48.1059   25.8062 C   0  0  0  0  0  0  0  0  0  0  0  0
   56.0879   47.7320   26.0941 C   0  0  0  0  0  0  0  0  0  0  0  0
   56.2134   46.9110   27.2586 N   0  0  2  0  0  0  0  0  0  0  0  0
   57.5989   46.9273   27.7567 C   0  0  0  0  0  0  0  0  0  0  0  0
   57.5267   45.8751   28.8168 C   0  0  2  0  0  0  0  0  0  0  0  0
   58.8476   45.1741   29.0317 C   0  0  0  0  0  0  0  0  0  0  0  0
   59.7768   46.1297   29.4141 O   0  0  0  0  0  0  0  0  0  0  0  0
   56.4610   44.9118   28.3199 C   0  0  1  0  0  0  0  0  0  0  0  0
   55.3355   45.1103   29.1392 O   0  0  0  0  0  0  0  0  0  0  0  0
   56.0962   45.4964   26.9531 C   0  0  0  0  0  0  0  0  0  0  0  0
   54.3300   48.9009   24.7297 C   0  0  0  0  0  0  0  0  0  0  0  0
   52.9986   49.0712   24.7226 N   0  0  0  0  0  0  0  0  0  0  0  0
   52.4755   48.4057   25.7708 C   0  0  0  0  0  0  0  0  0  0  0  0
  1  2  2  0
  2  3  1  0
  3  4  1  0
  4  5  2  0
  5  6  1  0
  6  7  1  0
  7  8  1  0
  9  8  1  6
  9 10  1  0
 10 11  1  0
 11 12  1  6
 12 13  1  0
 11 14  1  0
 14 15  1  1
 14 16  1  0
  7 17  2  0
 17 18  1  0
 18 19  1  0
 19  2  1  0
 19  6  2  0
 16  9  1  0
M  CHG  1   9   1
M  END
>  <shape_align_shape_tanimoto>  (1) 
0.61649321835493198

>  <shape_align_color_tanimoto>  (1) 
0.084965404375953166

>  <metric>  (1) 
shape

>  <metric_score>  (1) 
0.616

>  <template_pid>  (1) 
2P4S

>  <template_shape_score>  (1) 
0.616

>  <template_color_score>  (1) 
0.085

>  <template_combo_score>  (1) 
0.351

$$$$
2P4S_color_pose
     RDKit          3D

 19 21  0  0  0  0  0  0  0  0999 V2000
   50.7080   49.0521   26.1836 O   0  0  0  0  0  0  0  0  0  0  0  0
   51.8824   48.8130   25.8595 C   0  0  0  0  0  0  0  0  0  0  0  0
   52.4936   49.4336   24.8338 N   0  0  0  0  0  0  0  0  0  0  0  0
   53.7618   49.1530   24.5097 C   0  0  0  0  0  0  0  0  0  0  0  0
   54.4699   48.2461   25.1920 N   0  0  0  0  0  0  0  0  0  0  0  0
   53.9267   47.5894   26.2245 C   0  0  0  0  0  0  0  0  0  0  0  0
   54.4018   46.6264   27.0802 C   0  0  0  0  0  0  0  0  0  0  0  0
   55.7248   45.9742   27.1703 C   0  0  0  0  0  0  0  0  0  0  0  0
   56.6508   46.8120   27.8286 N   0  0  2  0  0  0  0  0  0  0  0  0
   56.5119   48.2361   27.6020 C   0  0  0  0  0  0  0  0  0  0  0  0
   57.6405   48.6959   28.5500 C   0  0  2  0  0  0  0  0  0  0  0  0
   57.9087   50.1709   28.4334 C   0  0  0  0  0  0  0  0  0  0  0  0
   58.9452   50.4605   29.3345 O   0  0  0  0  0  0  0  0  0  0  0  0
   58.7661   47.8670   27.9681 C   0  0  1  0  0  0  0  0  0  0  0  0
   59.7356   47.5621   28.9206 O   0  0  0  0  0  0  0  0  0  0  0  0
   58.0446   46.6109   27.4797 C   0  0  0  0  0  0  0  0  0  0  0  0
   53.3470   46.3438   27.9371 C   0  0  0  0  0  0  0  0  0  0  0  0
   52.2749   47.0946   27.6258 N   0  0  0  0  0  0  0  0  0  0  0  0
   52.6218   47.8661   26.5714 C   0  0  0  0  0  0  0  0  0  0  0  0
  1  2  2  0
  2  3  1  0
  3  4  1  0
  4  5  2  0
  5  6  1  0
  6  7  1  0
  7  8  1  0
  9  8  1  6
  9 10  1  0
 10 11  1  0
 11 12  1  6
 12 13  1  0
 11 14  1  0
 14 15  1  1
 14 16  1  0
  7 17  2  0
 17 18  1  0
 18 19  1  0
 19  2  1  0
 19  6  2  0
 16  9  1  0
M  CHG  1   9   1
M  END
>  <shape_align_shape_tanimoto>  (2) 
0.54530387948043735

>  <shape_align_color_tanimoto>  (2) 
0.16775639987918101

>  <metric>  (2) 
color

>  <metric_score>  (2) 
0.168

>  <template_pid>  (2) 
2P4S

>  <template_shape_score>  (2) 
0.545

>  <template_color_score>  (2) 
0.168

>  <template_combo_score>  (2) 
0.357

$$$$
2P4S_combo_pose
     RDKit          3D

 19 21  0  0  0  0  0  0  0  0999 V2000
   50.7080   49.0521   26.1836 O   0  0  0  0  0  0  0  0  0  0  0  0
   51.8824   48.8130   25.8595 C   0  0  0  0  0  0  0  0  0  0  0  0
   52.4936   49.4336   24.8338 N   0  0  0  0  0  0  0  0  0  0  0  0
   53.7618   49.1530   24.5097 C   0  0  0  0  0  0  0  0  0  0  0  0
   54.4699   48.2461   25.1920 N   0  0  0  0  0  0  0  0  0  0  0  0
   53.9267   47.5894   26.2245 C   0  0  0  0  0  0  0  0  0  0  0  0
   54.4018   46.6264   27.0802 C   0  0  0  0  0  0  0  0  0  0  0  0
   55.7248   45.9742   27.1703 C   0  0  0  0  0  0  0  0  0  0  0  0
   56.6508   46.8120   27.8286 N   0  0  2  0  0  0  0  0  0  0  0  0
   56.5119   48.2361   27.6020 C   0  0  0  0  0  0  0  0  0  0  0  0
   57.6405   48.6959   28.5500 C   0  0  2  0  0  0  0  0  0  0  0  0
   57.9087   50.1709   28.4334 C   0  0  0  0  0  0  0  0  0  0  0  0
   58.9452   50.4605   29.3345 O   0  0  0  0  0  0  0  0  0  0  0  0
   58.7661   47.8670   27.9681 C   0  0  1  0  0  0  0  0  0  0  0  0
   59.7356   47.5621   28.9206 O   0  0  0  0  0  0  0  0  0  0  0  0
   58.0446   46.6109   27.4797 C   0  0  0  0  0  0  0  0  0  0  0  0
   53.3470   46.3438   27.9371 C   0  0  0  0  0  0  0  0  0  0  0  0
   52.2749   47.0946   27.6258 N   0  0  0  0  0  0  0  0  0  0  0  0
   52.6218   47.8661   26.5714 C   0  0  0  0  0  0  0  0  0  0  0  0
  1  2  2  0
  2  3  1  0
  3  4  1  0
  4  5  2  0
  5  6  1  0
  6  7  1  0
  7  8  1  0
  9  8  1  6
  9 10  1  0
 10 11  1  0
 11 12  1  6
 12 13  1  0
 11 14  1  0
 14 15  1  1
 14 16  1  0
  7 17  2  0
 17 18  1  0
 18 19  1  0
 19  2  1  0
 19  6  2  0
 16  9  1  0
M  CHG  1   9   1
M  END
>  <shape_align_shape_tanimoto>  (3) 
0.54530387948043735

>  <shape_align_color_tanimoto>  (3) 
0.16775639987918101

>  <metric>  (3) 
combo

>  <metric_score>  (3) 
0.357

>  <template_pid>  (3) 
2P4S

>  <template_shape_score>  (3) 
0.545

>  <template_color_score>  (3) 
0.168

>  <template_combo_score>  (3) 
0.357

$$$$
