1W2X_shape_pose
     RDKit          3D

 36 41  0  0  0  0  0  0  0  0999 V2000
   25.1422    6.0859   38.8773 O   0  0  0  0  0  0  0  0  0  0  0  0
   24.6493    6.3590   40.0331 C   0  0  0  0  0  0  0  0  0  0  0  0
   24.3470    7.7691   40.2405 C   0  0  0  0  0  0  0  0  0  0  0  0
   23.0985    8.2868   40.4043 C   0  0  0  0  0  0  0  0  0  0  0  0
   21.9999    7.4620   40.3660 C   0  0  0  0  0  0  0  0  0  0  0  0
   20.7372    7.9934   40.5322 C   0  0  0  0  0  0  0  0  0  0  0  0
   20.5382    9.3653   40.7400 C   0  0  0  0  0  0  0  0  0  0  0  0
   21.6579   10.1808   40.7745 C   0  0  0  0  0  0  0  0  0  0  0  0
   22.9205    9.6580   40.6103 C   0  0  0  0  0  0  0  0  0  0  0  0
   23.9873   10.5240   40.6526 C   0  0  0  0  0  0  0  0  0  0  0  0
   25.2476   10.0006   40.4855 C   0  0  0  0  0  0  0  0  0  0  0  0
   26.3478   10.8388   40.5195 C   0  0  0  0  0  0  0  0  0  0  0  0
   27.6418   10.3869   40.3585 C   0  0  0  0  0  0  0  0  0  0  0  0
   27.8184    9.0211   40.1541 C   0  0  0  0  0  0  0  0  0  0  0  0
   26.7088    8.1753   40.1203 C   0  0  0  0  0  0  0  0  0  0  0  0
   25.4264    8.6310   40.2811 C   0  0  0  0  0  0  0  0  0  0  0  0
   24.4426    5.3445   40.9803 N   0  0  0  0  0  0  0  0  0  0  0  0
   23.8837    5.5132   42.2969 C   0  0  0  0  0  0  0  0  0  0  0  0
   24.4383    4.3857   43.1510 C   0  0  0  0  0  0  0  0  0  0  0  0
   25.9398    4.1611   42.8770 C   0  0  0  0  0  0  0  0  0  0  0  0
   26.6296    5.3174   43.3918 N   0  0  1  0  0  0  0  0  0  0  0  0
   26.4080    5.3322   44.8019 C   0  0  0  0  0  0  0  0  0  0  0  0
   27.4756    5.8188   45.6845 C   0  0  0  0  0  0  0  0  0  0  0  0
   28.6511    6.4325   45.0079 C   0  0  0  0  0  0  0  0  0  0  0  0
   29.0899    5.7024   43.7626 C   0  0  1  0  0  0  0  0  0  0  0  0
   29.7171    4.4147   44.1061 C   0  0  0  0  0  0  0  0  0  0  0  0
   29.5046    3.9079   45.2378 O   0  0  0  0  0  0  0  0  0  0  0  0
   30.5741    3.6805   43.2323 N   0  0  0  0  0  0  0  0  0  0  0  0
   30.9654    4.1301   41.9165 C   0  0  0  0  0  0  0  0  0  0  0  0
   30.9727    2.9825   40.9459 C   0  0  0  0  0  0  0  0  0  0  0  0
   30.4412    1.8077   41.4627 O   0  0  0  0  0  0  0  0  0  0  0  0
   31.1879    1.3835   42.5553 C   0  0  0  0  0  0  0  0  0  0  0  0
   31.1268    2.3852   43.6550 C   0  0  0  0  0  0  0  0  0  0  0  0
   27.8936    5.6443   42.8818 C   0  0  0  0  0  0  0  0  0  0  0  0
   26.0641    3.6981   41.5166 C   0  0  0  0  0  0  0  0  0  0  0  0
   24.8448    3.9905   40.6134 C   0  0  0  0  0  0  0  0  0  0  0  0
  1  2  2  0
  2  3  1  0
  3  4  1  0
  4  5  2  0
  5  6  1  0
  6  7  2  0
  7  8  1  0
  8  9  2  0
  9 10  1  0
 10 11  2  0
 11 12  1  0
 12 13  2  0
 13 14  1  0
 14 15  2  0
 15 16  1  0
  2 17  1  0
 17 18  1  0
 18 19  1  0
 19 20  1  0
 21 20  1  1
 21 22  1  0
 22 23  1  0
 23 24  1  0
 24 25  1  0
 25 26  1  1
 26 27  2  0
 26 28  1  0
 28 29  1  0
 29 30  1  0
 30 31  1  0
 31 32  1  0
 32 33  1  0
 25 34  1  0
 20 35  1  0
 35 36  1  0
 16  3  2  0
 36 17  1  0
  9  4  1  0
 16 11  1  0
 34 21  1  0
 33 28  1  0
M  CHG  1  21   1
M  END
>  <shape_align_shape_tanimoto>  (1) 
0.39858725042875726

>  <shape_align_color_tanimoto>  (1) 
0.0086658264792575969

>  <metric>  (1) 
shape

>  <metric_score>  (1) 
0.399

>  <template_pid>  (1) 
1W2X

>  <template_shape_score>  (1) 
0.399

>  <template_color_score>  (1) 
0.009

>  <template_combo_score>  (1) 
0.204

$$$$
1W2X_color_pose
     RDKit          3D

 36 41  0  0  0  0  0  0  0  0999 V2000
   25.1124    9.9318   40.4404 O   0  0  0  0  0  0  0  0  0  0  0  0
   24.1181    9.1261   40.3510 C   0  0  0  0  0  0  0  0  0  0  0  0
   22.8122    9.7530   40.3028 C   0  0  0  0  0  0  0  0  0  0  0  0
   22.5145   10.4962   39.1682 C   0  0  0  0  0  0  0  0  0  0  0  0
   23.4706   10.6000   38.1552 C   0  0  0  0  0  0  0  0  0  0  0  0
   23.2243   11.3331   37.0020 C   0  0  0  0  0  0  0  0  0  0  0  0
   22.0140   11.9679   36.8570 C   0  0  0  0  0  0  0  0  0  0  0  0
   21.0396   11.8799   37.8549 C   0  0  0  0  0  0  0  0  0  0  0  0
   21.3114   11.1430   38.9930 C   0  0  0  0  0  0  0  0  0  0  0  0
   20.3532   11.0539   39.9825 C   0  0  0  0  0  0  0  0  0  0  0  0
   20.6545   10.3057   41.1230 C   0  0  0  0  0  0  0  0  0  0  0  0
   19.6882   10.2222   42.1133 C   0  0  0  0  0  0  0  0  0  0  0  0
   19.9669    9.4898   43.2473 C   0  0  0  0  0  0  0  0  0  0  0  0
   21.1882    8.8332   43.4277 C   0  0  0  0  0  0  0  0  0  0  0  0
   22.1246    8.9392   42.4220 C   0  0  0  0  0  0  0  0  0  0  0  0
   21.8611    9.6636   41.2888 C   0  0  0  0  0  0  0  0  0  0  0  0
   24.3369    7.7275   40.3044 N   0  0  0  0  0  0  0  0  0  0  0  0
   23.3150    6.7246   40.2114 C   0  0  0  0  0  0  0  0  0  0  0  0
   23.5828    5.6977   41.3158 C   0  0  0  0  0  0  0  0  0  0  0  0
   24.8349    4.9547   40.9630 C   0  0  0  0  0  0  0  0  0  0  0  0
   25.3384    4.1670   42.0796 N   0  0  1  0  0  0  0  0  0  0  0  0
   25.8702    2.9145   41.5992 C   0  0  0  0  0  0  0  0  0  0  0  0
   26.1253    2.0710   42.8282 C   0  0  0  0  0  0  0  0  0  0  0  0
   27.1075    2.6929   43.7486 C   0  0  0  0  0  0  0  0  0  0  0  0
   27.3260    4.1663   43.5899 C   0  0  1  0  0  0  0  0  0  0  0  0
   28.5705    4.3991   42.8485 C   0  0  0  0  0  0  0  0  0  0  0  0
   29.0607    3.3768   42.2407 O   0  0  0  0  0  0  0  0  0  0  0  0
   29.2933    5.5919   42.7180 N   0  0  0  0  0  0  0  0  0  0  0  0
   30.4860    5.5328   41.8404 C   0  0  0  0  0  0  0  0  0  0  0  0
   30.5582    6.8098   41.0064 C   0  0  0  0  0  0  0  0  0  0  0  0
   30.5241    7.9317   41.8258 O   0  0  0  0  0  0  0  0  0  0  0  0
   29.2016    7.9747   42.3250 C   0  0  0  0  0  0  0  0  0  0  0  0
   29.0515    6.8450   43.3530 C   0  0  0  0  0  0  0  0  0  0  0  0
   26.1409    4.8794   43.0062 C   0  0  0  0  0  0  0  0  0  0  0  0
   25.8508    5.7701   40.2577 C   0  0  0  0  0  0  0  0  0  0  0  0
   25.7205    7.2474   40.3484 C   0  0  0  0  0  0  0  0  0  0  0  0
  1  2  2  0
  2  3  1  0
  3  4  1  0
  4  5  2  0
  5  6  1  0
  6  7  2  0
  7  8  1  0
  8  9  2  0
  9 10  1  0
 10 11  2  0
 11 12  1  0
 12 13  2  0
 13 14  1  0
 14 15  2  0
 15 16  1  0
  2 17  1  0
 17 18  1  0
 18 19  1  0
 19 20  1  0
 21 20  1  6
 21 22  1  0
 22 23  1  0
 23 24  1  0
 24 25  1  0
 25 26  1  6
 26 27  2  0
 26 28  1  0
 28 29  1  0
 29 30  1  0
 30 31  1  0
 31 32  1  0
 32 33  1  0
 25 34  1  0
 20 35  1  0
 35 36  1  0
 16  3  2  0
 36 17  1  0
  9  4  1  0
 16 11  1  0
 34 21  1  0
 33 28  1  0
M  CHG  1  21   1
M  END
>  <shape_align_shape_tanimoto>  (2) 
0.34658464314125953

>  <shape_align_color_tanimoto>  (2) 
0.076698165936863044

>  <metric>  (2) 
color

>  <metric_score>  (2) 
0.077

>  <template_pid>  (2) 
1W2X

>  <template_shape_score>  (2) 
0.347

>  <template_color_score>  (2) 
0.077

>  <template_combo_score>  (2) 
0.212

$$$$
1W2X_combo_pose
     RDKit          3D

 36 41  0  0  0  0  0  0  0  0999 V2000
   25.0828   10.3196   40.7817 O   0  0  0  0  0  0  0  0  0  0  0  0
   24.1985    9.4453   40.5387 C   0  0  0  0  0  0  0  0  0  0  0  0
   22.7998    9.7681   40.8039 C   0  0  0  0  0  0  0  0  0  0  0  0
   22.3730    9.5880   42.1245 C   0  0  0  0  0  0  0  0  0  0  0  0
   23.2155    9.1403   43.1134 C   0  0  0  0  0  0  0  0  0  0  0  0
   22.7731    8.9718   44.4078 C   0  0  0  0  0  0  0  0  0  0  0  0
   21.4576    9.2634   44.6939 C   0  0  0  0  0  0  0  0  0  0  0  0
   20.5851    9.7192   43.7050 C   0  0  0  0  0  0  0  0  0  0  0  0
   21.0377    9.8871   42.4010 C   0  0  0  0  0  0  0  0  0  0  0  0
   20.1841   10.3367   41.4211 C   0  0  0  0  0  0  0  0  0  0  0  0
   20.5926   10.5174   40.1188 C   0  0  0  0  0  0  0  0  0  0  0  0
   19.7319   10.9702   39.1415 C   0  0  0  0  0  0  0  0  0  0  0  0
   20.1791   11.1448   37.8336 C   0  0  0  0  0  0  0  0  0  0  0  0
   21.5084   10.8442   37.5746 C   0  0  0  0  0  0  0  0  0  0  0  0
   22.3733   10.3906   38.5491 C   0  0  0  0  0  0  0  0  0  0  0  0
   21.9261   10.2179   39.8488 C   0  0  0  0  0  0  0  0  0  0  0  0
   24.4926    8.1613   40.0201 N   0  0  0  0  0  0  0  0  0  0  0  0
   23.4857    7.1563   39.7383 C   0  0  0  0  0  0  0  0  0  0  0  0
   24.1471    5.7949   39.7557 C   0  0  0  0  0  0  0  0  0  0  0  0
   25.0333    5.7656   41.0120 C   0  0  0  0  0  0  0  0  0  0  0  0
   25.5036    4.4374   41.2557 N   0  0  1  0  0  0  0  0  0  0  0  0
   26.6910    4.2943   42.0193 C   0  0  0  0  0  0  0  0  0  0  0  0
   26.5477    4.2225   43.4977 C   0  0  0  0  0  0  0  0  0  0  0  0
   25.2020    4.1172   44.0716 C   0  0  0  0  0  0  0  0  0  0  0  0
   24.0807    3.6881   43.1462 C   0  0  1  0  0  0  0  0  0  0  0  0
   22.9260    4.5810   43.3285 C   0  0  0  0  0  0  0  0  0  0  0  0
   23.0981    5.5428   44.1707 O   0  0  0  0  0  0  0  0  0  0  0  0
   21.6625    4.5335   42.7170 N   0  0  0  0  0  0  0  0  0  0  0  0
   20.7261    5.5945   43.1605 C   0  0  0  0  0  0  0  0  0  0  0  0
   19.6483    5.6457   42.1042 C   0  0  0  0  0  0  0  0  0  0  0  0
   18.9676    4.4338   42.2462 O   0  0  0  0  0  0  0  0  0  0  0  0
   19.6967    3.4129   41.6913 C   0  0  0  0  0  0  0  0  0  0  0  0
   21.1873    3.6141   41.7501 C   0  0  0  0  0  0  0  0  0  0  0  0
   24.5204    3.5039   41.7414 C   0  0  0  0  0  0  0  0  0  0  0  0
   26.2480    6.6211   40.6584 C   0  0  0  0  0  0  0  0  0  0  0  0
   25.8775    7.7759   39.7391 C   0  0  0  0  0  0  0  0  0  0  0  0
  1  2  2  0
  2  3  1  0
  3  4  1  0
  4  5  2  0
  5  6  1  0
  6  7  2  0
  7  8  1  0
  8  9  2  0
  9 10  1  0
 10 11  2  0
 11 12  1  0
 12 13  2  0
 13 14  1  0
 14 15  2  0
 15 16  1  0
  2 17  1  0
 17 18  1  0
 18 19  1  0
 19 20  1  0
 21 20  1  1
 21 22  1  0
 22 23  1  0
 23 24  1  0
 24 25  1  0
 25 26  1  6
 26 27  2  0
 26 28  1  0
 28 29  1  0
 29 30  1  0
 30 31  1  0
 31 32  1  0
 32 33  1  0
 25 34  1  0
 20 35  1  0
 35 36  1  0
 16  3  2  0
 36 17  1  0
  9  4  1  0
 16 11  1  0
 34 21  1  0
 33 28  1  0
M  CHG  1  21   1
M  END
>  <shape_align_shape_tanimoto>  (3) 
0.35520310696179969

>  <shape_align_color_tanimoto>  (3) 
0.070419207525737118

>  <metric>  (3) 
combo

>  <metric_score>  (3) 
0.213

>  <template_pid>  (3) 
1W2X

>  <template_shape_score>  (3) 
0.355

>  <template_color_score>  (3) 
0.070

>  <template_combo_score>  (3) 
0.213

$$$$
