6K05_shape_pose
     RDKit          3D

 29 33  0  0  0  0  0  0  0  0999 V2000
  -20.0768   -4.0010   81.2927 C   0  0  0  0  0  0  0  0  0  0  0  0
  -21.5036   -4.3587   81.2649 C   0  0  0  0  0  0  0  0  0  0  0  0
  -22.4885   -3.9519   82.1263 N   0  0  0  0  0  0  0  0  0  0  0  0
  -23.6422   -4.4989   81.7815 N   0  0  0  0  0  0  0  0  0  0  0  0
  -23.4526   -5.2592   80.7137 C   0  0  0  0  0  0  0  0  0  0  0  0
  -22.1435   -5.1683   80.4027 N   0  0  0  0  0  0  0  0  0  0  0  0
  -21.4531   -5.7975   79.3287 C   0  0  0  0  0  0  0  0  0  0  0  0
  -21.8427   -6.9222   78.7473 C   0  0  0  0  0  0  0  0  0  0  0  0
  -20.9440   -7.3975   77.6283 C   0  0  0  0  0  0  0  0  0  0  0  0
  -19.5571   -7.3569   78.2430 C   0  0  0  0  0  0  0  0  0  0  0  0
  -18.5942   -8.1275   77.4121 C   0  0  0  0  0  0  0  0  0  0  0  0
  -18.1925   -7.8103   76.1377 C   0  0  0  0  0  0  0  0  0  0  0  0
  -17.3192   -8.7524   75.7374 N   0  0  0  0  0  0  0  0  0  0  0  0
  -17.1649   -9.6365   76.7093 N   0  0  0  0  0  0  0  0  0  0  0  0
  -16.2859  -10.7912   76.6067 C   0  0  0  0  0  0  0  0  0  0  0  0
  -17.9303   -9.3033   77.7756 C   0  0  0  0  0  0  0  0  0  0  0  0
  -19.0633   -5.9672   78.5372 C   0  0  0  0  0  0  0  0  0  0  0  0
  -20.2498   -5.1039   78.8595 C   0  0  0  0  0  0  0  0  0  0  0  0
  -22.9575   -7.8572   78.9158 C   0  0  2  0  0  0  0  0  0  0  0  0
  -23.3747   -8.4884   77.6670 N   0  0  0  0  0  0  0  0  0  0  0  0
  -23.7670   -7.7742   76.5181 C   0  0  0  0  0  0  0  0  0  0  0  0
  -23.7827   -6.3997   76.4157 C   0  0  0  0  0  0  0  0  0  0  0  0
  -24.1810   -5.7234   75.2830 C   0  0  0  0  0  0  0  0  0  0  0  0
  -24.5916   -6.4067   74.1735 C   0  0  0  0  0  0  0  0  0  0  0  0
  -25.1067   -5.6038   72.7115 Cl  0  0  0  0  0  0  0  0  0  0  0  0
  -24.5910   -7.7842   74.2330 C   0  0  0  0  0  0  0  0  0  0  0  0
  -24.1917   -8.4564   75.3687 C   0  0  0  0  0  0  0  0  0  0  0  0
  -24.0631   -7.4828   79.8007 C   0  0  0  0  0  0  0  0  0  0  0  0
  -24.4667   -6.0820   79.9803 C   0  0  0  0  0  0  0  0  0  0  0  0
  1  2  1  0
  2  3  2  0
  3  4  1  0
  4  5  2  0
  5  6  1  0
  6  7  1  0
  7  8  2  0
  8  9  1  0
  9 10  1  0
 10 11  1  0
 11 12  1  0
 12 13  2  0
 13 14  1  0
 14 15  1  0
 14 16  1  0
 10 17  1  0
 17 18  1  0
  8 19  1  0
 19 20  1  6
 20 21  1  0
 21 22  2  0
 22 23  1  0
 23 24  2  0
 24 25  1  0
 24 26  1  0
 26 27  2  0
 19 28  1  0
 28 29  1  0
  6  2  1  0
 18  7  1  0
 27 21  1  0
 29  5  1  0
 16 11  2  0
M  END
>  <shape_align_shape_tanimoto>  (1) 
0.62614252219491839

>  <shape_align_color_tanimoto>  (1) 
0.012108914857339908

>  <metric>  (1) 
shape

>  <metric_score>  (1) 
0.626

>  <template_pid>  (1) 
6K05

>  <template_shape_score>  (1) 
0.626

>  <template_color_score>  (1) 
0.012

>  <template_combo_score>  (1) 
0.319

$$$$
6K05_color_pose
     RDKit          3D

 29 33  0  0  0  0  0  0  0  0999 V2000
  -27.1636   -7.4723   76.3173 C   0  0  0  0  0  0  0  0  0  0  0  0
  -25.9797   -7.2776   75.4903 C   0  0  0  0  0  0  0  0  0  0  0  0
  -26.0045   -7.2019   74.1136 N   0  0  0  0  0  0  0  0  0  0  0  0
  -24.7944   -7.0505   73.6345 N   0  0  0  0  0  0  0  0  0  0  0  0
  -23.9444   -7.0235   74.6993 C   0  0  0  0  0  0  0  0  0  0  0  0
  -24.6628   -7.1606   75.8344 N   0  0  0  0  0  0  0  0  0  0  0  0
  -24.2004   -7.1907   77.2183 C   0  0  0  0  0  0  0  0  0  0  0  0
  -22.9449   -7.4190   77.6042 C   0  0  0  0  0  0  0  0  0  0  0  0
  -22.6920   -7.4122   79.0606 C   0  0  0  0  0  0  0  0  0  0  0  0
  -23.4126   -6.1133   79.4856 C   0  0  0  0  0  0  0  0  0  0  0  0
  -22.9643   -5.6644   80.8002 C   0  0  0  0  0  0  0  0  0  0  0  0
  -23.0216   -6.2656   82.0251 C   0  0  0  0  0  0  0  0  0  0  0  0
  -22.4670   -5.4314   82.9369 N   0  0  0  0  0  0  0  0  0  0  0  0
  -22.0552   -4.3181   82.3480 N   0  0  0  0  0  0  0  0  0  0  0  0
  -21.4067   -3.1717   82.9757 C   0  0  0  0  0  0  0  0  0  0  0  0
  -22.3493   -4.4320   81.0229 C   0  0  0  0  0  0  0  0  0  0  0  0
  -24.8483   -6.5062   79.4664 C   0  0  0  0  0  0  0  0  0  0  0  0
  -25.3284   -6.8976   78.0782 C   0  0  0  0  0  0  0  0  0  0  0  0
  -21.7700   -7.6568   76.7379 C   0  0  2  0  0  0  0  0  0  0  0  0
  -20.5380   -7.9185   77.3520 N   0  0  0  0  0  0  0  0  0  0  0  0
  -19.6393   -7.0662   78.0275 C   0  0  0  0  0  0  0  0  0  0  0  0
  -19.7810   -5.7225   78.2262 C   0  0  0  0  0  0  0  0  0  0  0  0
  -18.8554   -4.9299   78.8870 C   0  0  0  0  0  0  0  0  0  0  0  0
  -17.7130   -5.4881   79.3887 C   0  0  0  0  0  0  0  0  0  0  0  0
  -16.5069   -4.5479   80.2306 Cl  0  0  0  0  0  0  0  0  0  0  0  0
  -17.5267   -6.8363   79.2137 C   0  0  0  0  0  0  0  0  0  0  0  0
  -18.4490   -7.6120   78.5579 C   0  0  0  0  0  0  0  0  0  0  0  0
  -21.6820   -6.5902   75.6543 C   0  0  0  0  0  0  0  0  0  0  0  0
  -22.4895   -6.8745   74.4495 C   0  0  0  0  0  0  0  0  0  0  0  0
  1  2  1  0
  2  3  2  0
  3  4  1  0
  4  5  2  0
  5  6  1  0
  6  7  1  0
  7  8  2  0
  8  9  1  0
  9 10  1  0
 10 11  1  0
 11 12  1  0
 12 13  2  0
 13 14  1  0
 14 15  1  0
 14 16  1  0
 10 17  1  0
 17 18  1  0
  8 19  1  0
 19 20  1  1
 20 21  1  0
 21 22  2  0
 22 23  1  0
 23 24  2  0
 24 25  1  0
 24 26  1  0
 26 27  2  0
 19 28  1  0
 28 29  1  0
  6  2  1  0
 18  7  1  0
 27 21  1  0
 29  5  1  0
 16 11  2  0
M  END
>  <shape_align_shape_tanimoto>  (2) 
0.54526369884774006

>  <shape_align_color_tanimoto>  (2) 
0.094282558356048402

>  <metric>  (2) 
color

>  <metric_score>  (2) 
0.094

>  <template_pid>  (2) 
6K05

>  <template_shape_score>  (2) 
0.545

>  <template_color_score>  (2) 
0.094

>  <template_combo_score>  (2) 
0.320

$$$$
6K05_combo_pose
     RDKit          3D

 29 33  0  0  0  0  0  0  0  0999 V2000
  -26.6741   -8.3223   75.5440 C   0  0  0  0  0  0  0  0  0  0  0  0
  -25.6619   -7.4047   75.0335 C   0  0  0  0  0  0  0  0  0  0  0  0
  -25.6205   -6.6767   73.8748 N   0  0  0  0  0  0  0  0  0  0  0  0
  -24.4898   -5.9692   73.8124 N   0  0  0  0  0  0  0  0  0  0  0  0
  -23.7822   -6.2255   74.9253 C   0  0  0  0  0  0  0  0  0  0  0  0
  -24.5148   -7.1109   75.6686 N   0  0  0  0  0  0  0  0  0  0  0  0
  -24.1131   -7.6486   76.9566 C   0  0  0  0  0  0  0  0  0  0  0  0
  -22.8457   -7.8879   77.2502 C   0  0  0  0  0  0  0  0  0  0  0  0
  -22.6189   -8.4324   78.6286 C   0  0  0  0  0  0  0  0  0  0  0  0
  -23.5573   -7.7337   79.5868 C   0  0  0  0  0  0  0  0  0  0  0  0
  -23.2949   -6.3103   79.8100 C   0  0  0  0  0  0  0  0  0  0  0  0
  -23.6921   -5.1885   79.1168 C   0  0  0  0  0  0  0  0  0  0  0  0
  -23.1863   -4.0995   79.7300 N   0  0  0  0  0  0  0  0  0  0  0  0
  -22.4800   -4.4582   80.7877 N   0  0  0  0  0  0  0  0  0  0  0  0
  -21.7730   -3.5778   81.7195 C   0  0  0  0  0  0  0  0  0  0  0  0
  -22.5257   -5.7984   80.8650 C   0  0  0  0  0  0  0  0  0  0  0  0
  -24.9452   -8.0228   79.2124 C   0  0  0  0  0  0  0  0  0  0  0  0
  -25.2972   -7.9025   77.7532 C   0  0  0  0  0  0  0  0  0  0  0  0
  -21.6077   -7.7934   76.4534 C   0  0  2  0  0  0  0  0  0  0  0  0
  -20.3844   -7.9732   77.1300 N   0  0  0  0  0  0  0  0  0  0  0  0
  -19.7441   -7.0899   78.0298 C   0  0  0  0  0  0  0  0  0  0  0  0
  -20.2120   -5.8448   78.3771 C   0  0  0  0  0  0  0  0  0  0  0  0
  -19.5745   -5.0008   79.2599 C   0  0  0  0  0  0  0  0  0  0  0  0
  -18.3957   -5.3800   79.8566 C   0  0  0  0  0  0  0  0  0  0  0  0
  -17.5443   -4.3495   80.9841 Cl  0  0  0  0  0  0  0  0  0  0  0  0
  -17.8931   -6.6219   79.5343 C   0  0  0  0  0  0  0  0  0  0  0  0
  -18.5363   -7.4598   78.6511 C   0  0  0  0  0  0  0  0  0  0  0  0
  -21.4714   -6.7243   75.4463 C   0  0  0  0  0  0  0  0  0  0  0  0
  -22.4602   -5.6473   75.2980 C   0  0  0  0  0  0  0  0  0  0  0  0
  1  2  1  0
  2  3  2  0
  3  4  1  0
  4  5  2  0
  5  6  1  0
  6  7  1  0
  7  8  2  0
  8  9  1  0
  9 10  1  0
 10 11  1  0
 11 12  1  0
 12 13  2  0
 13 14  1  0
 14 15  1  0
 14 16  1  0
 10 17  1  0
 17 18  1  0
  8 19  1  0
 19 20  1  1
 20 21  1  0
 21 22  2  0
 22 23  1  0
 23 24  2  0
 24 25  1  0
 24 26  1  0
 26 27  2  0
 19 28  1  0
 28 29  1  0
  6  2  1  0
 18  7  1  0
 27 21  1  0
 29  5  1  0
 16 11  2  0
M  END
>  <shape_align_shape_tanimoto>  (3) 
0.60416677853930589

>  <shape_align_color_tanimoto>  (3) 
0.070659884117612162

>  <metric>  (3) 
combo

>  <metric_score>  (3) 
0.337

>  <template_pid>  (3) 
6K05

>  <template_shape_score>  (3) 
0.604

>  <template_color_score>  (3) 
0.071

>  <template_combo_score>  (3) 
0.337

$$$$
