5TB6_shape_pose
     RDKit          3D

 19 21  0  0  0  0  0  0  0  0999 V2000
    4.5774  -23.9586  -29.5491 C   0  0  0  0  0  0  0  0  0  0  0  0
    5.0007  -25.3431  -29.9554 C   0  0  0  0  0  0  0  0  0  0  0  0
    4.1349  -26.3865  -29.3505 C   0  0  0  0  0  0  0  0  0  0  0  0
    4.4564  -26.7475  -28.1682 O   0  0  0  0  0  0  0  0  0  0  0  0
    3.0150  -26.9591  -30.0302 N   0  0  0  0  0  0  0  0  0  0  0  0
    2.6266  -26.5595  -31.3548 C   0  0  0  0  0  0  0  0  0  0  0  0
    1.1551  -26.6347  -31.5878 C   0  0  0  0  0  0  0  0  0  0  0  0
    0.3795  -26.8909  -30.3569 C   0  0  0  0  0  0  0  0  0  0  0  0
   -0.8886  -26.5607  -30.0831 N   0  0  0  0  0  0  0  0  0  0  0  0
   -1.2127  -26.9925  -28.8659 N   0  0  0  0  0  0  0  0  0  0  0  0
   -0.1304  -27.6278  -28.3156 C   0  0  0  0  0  0  0  0  0  0  0  0
   -0.1961  -28.1894  -26.9833 C   0  0  0  0  0  0  0  0  0  0  0  0
   -1.3086  -27.8902  -26.1963 C   0  0  0  0  0  0  0  0  0  0  0  0
   -1.4581  -28.4190  -24.9188 C   0  0  0  0  0  0  0  0  0  0  0  0
   -0.5230  -29.2611  -24.3635 C   0  0  0  0  0  0  0  0  0  0  0  0
    0.5779  -29.5639  -25.1299 C   0  0  0  0  0  0  0  0  0  0  0  0
    0.7227  -29.0284  -26.4165 C   0  0  0  0  0  0  0  0  0  0  0  0
    0.8887  -27.5713  -29.2456 C   0  0  0  0  0  0  0  0  0  0  0  0
    2.2656  -28.0097  -29.2927 C   0  0  0  0  0  0  0  0  0  0  0  0
  1  2  1  0
  2  3  1  0
  3  4  2  0
  3  5  1  0
  5  6  1  0
  6  7  1  0
  7  8  1  0
  8  9  2  0
  9 10  1  0
 10 11  1  0
 11 12  1  0
 12 13  2  0
 13 14  1  0
 14 15  2  0
 15 16  1  0
 16 17  2  0
 11 18  2  0
 18 19  1  0
 19  5  1  0
 18  8  1  0
 17 12  1  0
M  END
>  <shape_align_shape_tanimoto>  (1) 
0.77170411904350744

>  <shape_align_color_tanimoto>  (1) 
0.08450742400490785

>  <metric>  (1) 
shape

>  <metric_score>  (1) 
0.772

>  <template_pid>  (1) 
5TB6

>  <template_shape_score>  (1) 
0.772

>  <template_color_score>  (1) 
0.085

>  <template_combo_score>  (1) 
0.428

$$$$
5TB6_color_pose
     RDKit          3D

 19 21  0  0  0  0  0  0  0  0999 V2000
   -0.2728  -27.9599  -22.9010 C   0  0  0  0  0  0  0  0  0  0  0  0
    0.2895  -27.9478  -24.3318 C   0  0  0  0  0  0  0  0  0  0  0  0
   -0.7512  -28.5626  -25.2052 C   0  0  0  0  0  0  0  0  0  0  0  0
   -1.8631  -28.9911  -24.7807 O   0  0  0  0  0  0  0  0  0  0  0  0
   -0.5203  -28.6991  -26.6341 N   0  0  0  0  0  0  0  0  0  0  0  0
   -1.5843  -29.3099  -27.4214 C   0  0  0  0  0  0  0  0  0  0  0  0
   -2.0215  -28.2486  -28.4539 C   0  0  0  0  0  0  0  0  0  0  0  0
   -0.8304  -27.6351  -29.1018 C   0  0  0  0  0  0  0  0  0  0  0  0
   -0.7685  -27.0099  -30.3087 N   0  0  0  0  0  0  0  0  0  0  0  0
    0.4754  -26.6089  -30.5376 N   0  0  0  0  0  0  0  0  0  0  0  0
    1.2611  -26.9673  -29.4741 C   0  0  0  0  0  0  0  0  0  0  0  0
    2.6862  -26.6593  -29.4337 C   0  0  0  0  0  0  0  0  0  0  0  0
    3.5585  -27.0314  -28.4344 C   0  0  0  0  0  0  0  0  0  0  0  0
    4.9213  -26.6983  -28.4392 C   0  0  0  0  0  0  0  0  0  0  0  0
    5.4544  -25.9685  -29.4682 C   0  0  0  0  0  0  0  0  0  0  0  0
    4.6096  -25.5755  -30.4923 C   0  0  0  0  0  0  0  0  0  0  0  0
    3.2548  -25.9113  -30.4793 C   0  0  0  0  0  0  0  0  0  0  0  0
    0.4501  -27.6311  -28.5282 C   0  0  0  0  0  0  0  0  0  0  0  0
    0.7421  -28.2255  -27.1930 C   0  0  0  0  0  0  0  0  0  0  0  0
  1  2  1  0
  2  3  1  0
  3  4  2  0
  3  5  1  0
  5  6  1  0
  6  7  1  0
  7  8  1  0
  8  9  2  0
  9 10  1  0
 10 11  1  0
 11 12  1  0
 12 13  2  0
 13 14  1  0
 14 15  2  0
 15 16  1  0
 16 17  2  0
 11 18  2  0
 18 19  1  0
 19  5  1  0
 18  8  1  0
 17 12  1  0
M  END
>  <shape_align_shape_tanimoto>  (2) 
0.62346076888576818

>  <shape_align_color_tanimoto>  (2) 
0.13491138755930254

>  <metric>  (2) 
color

>  <metric_score>  (2) 
0.135

>  <template_pid>  (2) 
5TB6

>  <template_shape_score>  (2) 
0.623

>  <template_color_score>  (2) 
0.135

>  <template_combo_score>  (2) 
0.379

$$$$
5TB6_combo_pose
     RDKit          3D

 19 21  0  0  0  0  0  0  0  0999 V2000
    4.9957  -24.0624  -29.5456 C   0  0  0  0  0  0  0  0  0  0  0  0
    5.0116  -25.4292  -30.1920 C   0  0  0  0  0  0  0  0  0  0  0  0
    4.2001  -26.4090  -29.4680 C   0  0  0  0  0  0  0  0  0  0  0  0
    4.7125  -26.9081  -28.4095 O   0  0  0  0  0  0  0  0  0  0  0  0
    2.8863  -26.8236  -29.8822 N   0  0  0  0  0  0  0  0  0  0  0  0
    2.3737  -26.2378  -31.0700 C   0  0  0  0  0  0  0  0  0  0  0  0
    1.0065  -26.7231  -31.4181 C   0  0  0  0  0  0  0  0  0  0  0  0
    0.2068  -27.0147  -30.2205 C   0  0  0  0  0  0  0  0  0  0  0  0
   -1.0967  -26.8561  -29.9907 N   0  0  0  0  0  0  0  0  0  0  0  0
   -1.3956  -27.2750  -28.7755 N   0  0  0  0  0  0  0  0  0  0  0  0
   -0.2733  -27.7343  -28.1503 C   0  0  0  0  0  0  0  0  0  0  0  0
   -0.3020  -28.2447  -26.8000 C   0  0  0  0  0  0  0  0  0  0  0  0
   -1.4731  -28.0880  -26.0601 C   0  0  0  0  0  0  0  0  0  0  0  0
   -1.5839  -28.5787  -24.7657 C   0  0  0  0  0  0  0  0  0  0  0  0
   -0.5457  -29.2415  -24.1534 C   0  0  0  0  0  0  0  0  0  0  0  0
    0.6102  -29.4004  -24.8753 C   0  0  0  0  0  0  0  0  0  0  0  0
    0.7200  -28.9094  -26.1695 C   0  0  0  0  0  0  0  0  0  0  0  0
    0.7280  -27.5667  -29.0596 C   0  0  0  0  0  0  0  0  0  0  0  0
    2.1825  -27.8086  -29.0442 C   0  0  0  0  0  0  0  0  0  0  0  0
  1  2  1  0
  2  3  1  0
  3  4  2  0
  3  5  1  0
  5  6  1  0
  6  7  1  0
  7  8  1  0
  8  9  2  0
  9 10  1  0
 10 11  1  0
 11 12  1  0
 12 13  2  0
 13 14  1  0
 14 15  2  0
 15 16  1  0
 16 17  2  0
 11 18  2  0
 18 19  1  0
 19  5  1  0
 18  8  1  0
 17 12  1  0
M  END
>  <shape_align_shape_tanimoto>  (3) 
0.76883222442508725

>  <shape_align_color_tanimoto>  (3) 
0.090180680825378209

>  <metric>  (3) 
combo

>  <metric_score>  (3) 
0.430

>  <template_pid>  (3) 
5TB6

>  <template_shape_score>  (3) 
0.769

>  <template_color_score>  (3) 
0.090

>  <template_combo_score>  (3) 
0.430

$$$$
