1PZP_shape_pose
     RDKit          3D

 23 25  0  0  0  0  0  0  0  0999 V2000
   32.3897   68.8686    2.4066 N   0  0  0  0  0  0  0  0  0  0  0  0
   31.8420   67.8645    2.3676 C   0  0  0  0  0  0  0  0  0  0  0  0
   31.1239   66.5698    2.3320 C   0  0  0  0  0  0  0  0  0  0  0  0
   31.1987   65.9551    0.9717 C   0  0  0  0  0  0  0  0  0  0  0  0
   32.5013   65.6555    0.4716 N   0  0  0  0  0  0  0  0  0  0  0  0
   33.2629   64.4946    0.7070 C   0  0  0  0  0  0  0  0  0  0  0  0
   32.8403   63.3977    1.4196 C   0  0  0  0  0  0  0  0  0  0  0  0
   33.6408   62.2833    1.6289 C   0  0  0  0  0  0  0  0  0  0  0  0
   34.9200   62.2034    1.1329 C   0  0  0  0  0  0  0  0  0  0  0  0
   35.7964   61.1172    1.3176 N   0  0  0  0  0  0  0  0  0  0  0  0
   35.7684   60.1825    2.3734 C   0  0  0  0  0  0  0  0  0  0  0  0
   35.2330   60.4162    3.6176 C   0  0  0  0  0  0  0  0  0  0  0  0
   35.2245   59.4371    4.6109 C   0  0  0  0  0  0  0  0  0  0  0  0
   35.7551   58.1826    4.3930 C   0  0  0  0  0  0  0  0  0  0  0  0
   36.2937   57.9409    3.1499 C   0  0  0  0  0  0  0  0  0  0  0  0
   36.3009   58.9045    2.1746 C   0  0  0  0  0  0  0  0  0  0  0  0
   35.3608   63.3143    0.4051 C   0  0  0  0  0  0  0  0  0  0  0  0
   34.5640   64.4178    0.1994 C   0  0  0  0  0  0  0  0  0  0  0  0
   31.5473   65.7149    3.4493 C   0  0  0  0  0  0  0  0  0  0  0  0
   30.6714   65.0696    4.2643 N   0  0  0  0  0  0  0  0  0  0  0  0
   31.3548   64.4014    5.1864 N   0  0  0  0  0  0  0  0  0  0  0  0
   32.6226   64.6070    4.9753 N   0  0  0  0  0  0  0  0  0  0  0  0
   32.7552   65.3980    3.9301 N   0  0  0  0  0  0  0  0  0  0  0  0
  1  2  3  0
  2  3  1  0
  3  4  1  0
  4  5  1  0
  5  6  1  0
  6  7  2  0
  7  8  1  0
  8  9  2  0
  9 10  1  0
 10 11  1  0
 11 12  2  0
 12 13  1  0
 13 14  2  0
 14 15  1  0
 15 16  2  0
  9 17  1  0
 17 18  2  0
  3 19  1  0
 19 20  1  0
 20 21  2  0
 21 22  1  0
 22 23  1  0
 18  6  1  0
 23 19  2  0
 16 11  1  0
M  END
>  <shape_align_shape_tanimoto>  (1) 
0.59405641444969259

>  <shape_align_color_tanimoto>  (1) 
0.061699489908723731

>  <metric>  (1) 
shape

>  <metric_score>  (1) 
0.594

>  <template_pid>  (1) 
1PZP

>  <template_shape_score>  (1) 
0.594

>  <template_color_score>  (1) 
0.062

>  <template_combo_score>  (1) 
0.328

$$$$
1PZP_color_pose
     RDKit          3D

 23 25  0  0  0  0  0  0  0  0999 V2000
   29.3169   64.9230    4.3959 N   0  0  0  0  0  0  0  0  0  0  0  0
   30.3916   65.2773    4.2293 C   0  0  0  0  0  0  0  0  0  0  0  0
   31.7479   65.7132    4.0309 C   0  0  0  0  0  0  0  0  0  0  0  0
   32.6666   64.5690    3.6747 C   0  0  0  0  0  0  0  0  0  0  0  0
   32.7151   63.5551    4.6880 N   0  0  0  0  0  0  0  0  0  0  0  0
   33.5267   62.3963    4.5332 C   0  0  0  0  0  0  0  0  0  0  0  0
   33.6063   61.3955    5.4784 C   0  0  0  0  0  0  0  0  0  0  0  0
   34.4059   60.2905    5.2867 C   0  0  0  0  0  0  0  0  0  0  0  0
   35.1779   60.1206    4.1306 C   0  0  0  0  0  0  0  0  0  0  0  0
   35.9660   58.9580    3.9754 N   0  0  0  0  0  0  0  0  0  0  0  0
   37.1075   58.8094    3.1888 C   0  0  0  0  0  0  0  0  0  0  0  0
   37.9527   59.8228    2.7941 C   0  0  0  0  0  0  0  0  0  0  0  0
   39.0646   59.6143    1.9959 C   0  0  0  0  0  0  0  0  0  0  0  0
   39.3857   58.3503    1.5481 C   0  0  0  0  0  0  0  0  0  0  0  0
   38.5574   57.3218    1.9291 C   0  0  0  0  0  0  0  0  0  0  0  0
   37.4539   57.5321    2.7217 C   0  0  0  0  0  0  0  0  0  0  0  0
   35.0848   61.1296    3.1985 C   0  0  0  0  0  0  0  0  0  0  0  0
   34.2777   62.2512    3.3859 C   0  0  0  0  0  0  0  0  0  0  0  0
   31.9057   66.7908    3.0188 C   0  0  0  0  0  0  0  0  0  0  0  0
   32.3866   68.0409    3.1742 N   0  0  0  0  0  0  0  0  0  0  0  0
   32.3592   68.6885    2.0204 N   0  0  0  0  0  0  0  0  0  0  0  0
   31.8611   67.8463    1.1384 N   0  0  0  0  0  0  0  0  0  0  0  0
   31.5735   66.6829    1.7078 N   0  0  0  0  0  0  0  0  0  0  0  0
  1  2  3  0
  2  3  1  0
  3  4  1  0
  4  5  1  0
  5  6  1  0
  6  7  2  0
  7  8  1  0
  8  9  2  0
  9 10  1  0
 10 11  1  0
 11 12  2  0
 12 13  1  0
 13 14  2  0
 14 15  1  0
 15 16  2  0
  9 17  1  0
 17 18  2  0
  3 19  1  0
 19 20  1  0
 20 21  2  0
 21 22  1  0
 22 23  1  0
 18  6  1  0
 23 19  2  0
 16 11  1  0
M  END
>  <shape_align_shape_tanimoto>  (2) 
0.43472949969703079

>  <shape_align_color_tanimoto>  (2) 
0.11999205339893167

>  <metric>  (2) 
color

>  <metric_score>  (2) 
0.120

>  <template_pid>  (2) 
1PZP

>  <template_shape_score>  (2) 
0.435

>  <template_color_score>  (2) 
0.120

>  <template_combo_score>  (2) 
0.277

$$$$
1PZP_combo_pose
     RDKit          3D

 23 25  0  0  0  0  0  0  0  0999 V2000
   32.3568   68.8513    2.4773 N   0  0  0  0  0  0  0  0  0  0  0  0
   31.8115   67.8329    2.3958 C   0  0  0  0  0  0  0  0  0  0  0  0
   31.0941   66.5392    2.2856 C   0  0  0  0  0  0  0  0  0  0  0  0
   31.2142   65.9612    0.9207 C   0  0  0  0  0  0  0  0  0  0  0  0
   32.5126   65.6566    0.4354 N   0  0  0  0  0  0  0  0  0  0  0  0
   33.2774   64.4985    0.6795 C   0  0  0  0  0  0  0  0  0  0  0  0
   32.8513   63.4046    1.3974 C   0  0  0  0  0  0  0  0  0  0  0  0
   33.6404   62.2895    1.6234 C   0  0  0  0  0  0  0  0  0  0  0  0
   34.9234   62.2058    1.1345 C   0  0  0  0  0  0  0  0  0  0  0  0
   35.7967   61.1184    1.3328 N   0  0  0  0  0  0  0  0  0  0  0  0
   35.7593   60.1919    2.3949 C   0  0  0  0  0  0  0  0  0  0  0  0
   35.2162   60.4410    3.6355 C   0  0  0  0  0  0  0  0  0  0  0  0
   35.1921   59.4764    4.6458 C   0  0  0  0  0  0  0  0  0  0  0  0
   35.7137   58.2302    4.4422 C   0  0  0  0  0  0  0  0  0  0  0  0
   36.2629   57.9586    3.2085 C   0  0  0  0  0  0  0  0  0  0  0  0
   36.2856   58.9110    2.2130 C   0  0  0  0  0  0  0  0  0  0  0  0
   35.3722   63.3048    0.4038 C   0  0  0  0  0  0  0  0  0  0  0  0
   34.5855   64.4121    0.1806 C   0  0  0  0  0  0  0  0  0  0  0  0
   31.5423   65.7311    3.4127 C   0  0  0  0  0  0  0  0  0  0  0  0
   32.7808   65.4666    3.8662 N   0  0  0  0  0  0  0  0  0  0  0  0
   32.6303   64.6812    4.9148 N   0  0  0  0  0  0  0  0  0  0  0  0
   31.3554   64.4298    5.1551 N   0  0  0  0  0  0  0  0  0  0  0  0
   30.6806   65.0676    4.2414 N   0  0  0  0  0  0  0  0  0  0  0  0
  1  2  3  0
  2  3  1  0
  3  4  1  0
  4  5  1  0
  5  6  1  0
  6  7  2  0
  7  8  1  0
  8  9  2  0
  9 10  1  0
 10 11  1  0
 11 12  2  0
 12 13  1  0
 13 14  2  0
 14 15  1  0
 15 16  2  0
  9 17  1  0
 17 18  2  0
  3 19  1  0
 19 20  1  0
 20 21  2  0
 21 22  1  0
 22 23  1  0
 18  6  1  0
 23 19  2  0
 16 11  1  0
M  END
>  <shape_align_shape_tanimoto>  (3) 
0.59372826932975753

>  <shape_align_color_tanimoto>  (3) 
0.091516024792211742

>  <metric>  (3) 
combo

>  <metric_score>  (3) 
0.343

>  <template_pid>  (3) 
1PZP

>  <template_shape_score>  (3) 
0.594

>  <template_color_score>  (3) 
0.092

>  <template_combo_score>  (3) 
0.343

$$$$
