5XIJ_shape_pose
     RDKit          3D

 22 24  0  0  0  0  0  0  0  0999 V2000
   35.9770   23.6403   27.2539 O   0  0  0  0  0  0  0  0  0  0  0  0
   35.0476   23.8166   28.0766 C   0  0  0  0  0  0  0  0  0  0  0  0
   35.3816   24.0738   29.3726 C   0  0  0  0  0  0  0  0  0  0  0  0
   36.6912   24.1445   29.7973 C   0  0  0  0  0  0  0  0  0  0  0  0
   36.9784   24.4087   31.1254 C   0  0  0  0  0  0  0  0  0  0  0  0
   35.9477   24.6053   32.0429 C   0  0  0  0  0  0  0  0  0  0  0  0
   34.6402   24.5356   31.6230 C   0  0  0  0  0  0  0  0  0  0  0  0
   34.3785   24.2733   30.3060 C   0  0  0  0  0  0  0  0  0  0  0  0
   33.1186   24.1976   29.8587 N   0  0  0  0  0  0  0  0  0  0  0  0
   32.8215   23.9446   28.5858 C   0  0  0  0  0  0  0  0  0  0  0  0
   33.7709   23.7399   27.6236 N   0  0  0  0  0  0  0  0  0  0  0  0
   33.5364   23.5009   26.2709 C   0  0  0  0  0  0  0  0  0  0  0  0
   33.4406   22.2180   25.6199 C   0  0  2  0  0  0  0  0  0  0  0  0
   33.1971   22.5438   24.2417 O   0  0  0  0  0  0  0  0  0  0  0  0
   32.4003   21.2233   25.9308 C   0  0  0  0  0  0  0  0  0  0  0  0
   32.2788   20.6481   27.2795 C   0  0  1  0  0  0  0  0  0  0  0  0
   31.1663   19.6711   27.3332 N   0  0  0  0  0  0  0  0  0  0  0  0
   30.8886   19.4203   28.7252 C   0  0  0  0  0  0  0  0  0  0  0  0
   32.0589   18.6669   29.3103 C   0  0  0  0  0  0  0  0  0  0  0  0
   33.3383   19.4506   29.1140 C   0  0  0  0  0  0  0  0  0  0  0  0
   33.5070   19.7997   27.6502 C   0  0  1  0  0  0  0  0  0  0  0  0
   33.4853   18.6242   26.9145 O   0  0  0  0  0  0  0  0  0  0  0  0
  1  2  2  0
  2  3  1  0
  3  4  2  0
  4  5  1  0
  5  6  2  0
  6  7  1  0
  7  8  2  0
  8  9  1  0
  9 10  2  0
 10 11  1  0
 11 12  1  0
 12 13  1  0
 13 14  1  6
 13 15  1  0
 16 15  1  6
 16 17  1  0
 17 18  1  0
 18 19  1  0
 19 20  1  0
 20 21  1  0
 21 22  1  6
 11  2  1  0
 21 16  1  0
  8  3  1  0
M  CHG  1  17   1
M  END
>  <shape_align_shape_tanimoto>  (1) 
0.74930876871195418

>  <shape_align_color_tanimoto>  (1) 
0.15567919287767354

>  <metric>  (1) 
shape

>  <metric_score>  (1) 
0.749

>  <template_pid>  (1) 
5XIJ

>  <template_shape_score>  (1) 
0.749

>  <template_color_score>  (1) 
0.156

>  <template_combo_score>  (1) 
0.452

$$$$
5XIJ_color_pose
     RDKit          3D

 22 24  0  0  0  0  0  0  0  0999 V2000
   32.9353   24.6531   30.1045 O   0  0  0  0  0  0  0  0  0  0  0  0
   34.1194   24.4338   29.7996 C   0  0  0  0  0  0  0  0  0  0  0  0
   35.1412   24.5271   30.7227 C   0  0  0  0  0  0  0  0  0  0  0  0
   34.8780   24.8756   32.0489 C   0  0  0  0  0  0  0  0  0  0  0  0
   35.9216   24.9608   32.9492 C   0  0  0  0  0  0  0  0  0  0  0  0
   37.2364   24.7166   32.6073 C   0  0  0  0  0  0  0  0  0  0  0  0
   37.4990   24.3688   31.2842 C   0  0  0  0  0  0  0  0  0  0  0  0
   36.4541   24.2860   30.3933 C   0  0  0  0  0  0  0  0  0  0  0  0
   36.7128   23.9485   29.1108 N   0  0  0  0  0  0  0  0  0  0  0  0
   35.7236   23.8548   28.2031 C   0  0  0  0  0  0  0  0  0  0  0  0
   34.4202   24.0939   28.5294 N   0  0  0  0  0  0  0  0  0  0  0  0
   33.4558   23.9634   27.4798 C   0  0  0  0  0  0  0  0  0  0  0  0
   32.8742   22.5682   27.3466 C   0  0  2  0  0  0  0  0  0  0  0  0
   32.2479   22.2391   28.5409 O   0  0  0  0  0  0  0  0  0  0  0  0
   33.8588   21.5665   26.8740 C   0  0  0  0  0  0  0  0  0  0  0  0
   33.3568   20.1577   26.7125 C   0  0  1  0  0  0  0  0  0  0  0  0
   32.8555   19.5205   27.8685 N   0  0  0  0  0  0  0  0  0  0  0  0
   31.4611   19.1711   27.8326 C   0  0  0  0  0  0  0  0  0  0  0  0
   31.0767   18.3732   26.6145 C   0  0  0  0  0  0  0  0  0  0  0  0
   32.0652   18.5453   25.4841 C   0  0  0  0  0  0  0  0  0  0  0  0
   32.4194   20.0397   25.5123 C   0  0  1  0  0  0  0  0  0  0  0  0
   31.2106   20.6917   25.7310 O   0  0  0  0  0  0  0  0  0  0  0  0
  1  2  2  0
  2  3  1  0
  3  4  2  0
  4  5  1  0
  5  6  2  0
  6  7  1  0
  7  8  2  0
  8  9  1  0
  9 10  2  0
 10 11  1  0
 11 12  1  0
 12 13  1  0
 13 14  1  1
 13 15  1  0
 16 15  1  1
 16 17  1  0
 17 18  1  0
 18 19  1  0
 19 20  1  0
 20 21  1  0
 21 22  1  1
 11  2  1  0
 21 16  1  0
  8  3  1  0
M  CHG  1  17   1
M  END
>  <shape_align_shape_tanimoto>  (2) 
0.63415459313680345

>  <shape_align_color_tanimoto>  (2) 
0.17608460711783544

>  <metric>  (2) 
color

>  <metric_score>  (2) 
0.176

>  <template_pid>  (2) 
5XIJ

>  <template_shape_score>  (2) 
0.634

>  <template_color_score>  (2) 
0.176

>  <template_combo_score>  (2) 
0.405

$$$$
5XIJ_combo_pose
     RDKit          3D

 22 24  0  0  0  0  0  0  0  0999 V2000
   35.9770   23.6403   27.2539 O   0  0  0  0  0  0  0  0  0  0  0  0
   35.0476   23.8166   28.0766 C   0  0  0  0  0  0  0  0  0  0  0  0
   35.3816   24.0738   29.3726 C   0  0  0  0  0  0  0  0  0  0  0  0
   36.6912   24.1445   29.7973 C   0  0  0  0  0  0  0  0  0  0  0  0
   36.9784   24.4087   31.1254 C   0  0  0  0  0  0  0  0  0  0  0  0
   35.9477   24.6053   32.0429 C   0  0  0  0  0  0  0  0  0  0  0  0
   34.6402   24.5356   31.6230 C   0  0  0  0  0  0  0  0  0  0  0  0
   34.3785   24.2733   30.3060 C   0  0  0  0  0  0  0  0  0  0  0  0
   33.1186   24.1976   29.8587 N   0  0  0  0  0  0  0  0  0  0  0  0
   32.8215   23.9446   28.5858 C   0  0  0  0  0  0  0  0  0  0  0  0
   33.7709   23.7399   27.6236 N   0  0  0  0  0  0  0  0  0  0  0  0
   33.5364   23.5009   26.2709 C   0  0  0  0  0  0  0  0  0  0  0  0
   33.4406   22.2180   25.6199 C   0  0  2  0  0  0  0  0  0  0  0  0
   33.1971   22.5438   24.2417 O   0  0  0  0  0  0  0  0  0  0  0  0
   32.4003   21.2233   25.9308 C   0  0  0  0  0  0  0  0  0  0  0  0
   32.2788   20.6481   27.2795 C   0  0  1  0  0  0  0  0  0  0  0  0
   31.1663   19.6711   27.3332 N   0  0  0  0  0  0  0  0  0  0  0  0
   30.8886   19.4203   28.7252 C   0  0  0  0  0  0  0  0  0  0  0  0
   32.0589   18.6669   29.3103 C   0  0  0  0  0  0  0  0  0  0  0  0
   33.3383   19.4506   29.1140 C   0  0  0  0  0  0  0  0  0  0  0  0
   33.5070   19.7997   27.6502 C   0  0  1  0  0  0  0  0  0  0  0  0
   33.4853   18.6242   26.9145 O   0  0  0  0  0  0  0  0  0  0  0  0
  1  2  2  0
  2  3  1  0
  3  4  2  0
  4  5  1  0
  5  6  2  0
  6  7  1  0
  7  8  2  0
  8  9  1  0
  9 10  2  0
 10 11  1  0
 11 12  1  0
 12 13  1  0
 13 14  1  6
 13 15  1  0
 16 15  1  6
 16 17  1  0
 17 18  1  0
 18 19  1  0
 19 20  1  0
 20 21  1  0
 21 22  1  6
 11  2  1  0
 21 16  1  0
  8  3  1  0
M  CHG  1  17   1
M  END
>  <shape_align_shape_tanimoto>  (3) 
0.74930876871195418

>  <shape_align_color_tanimoto>  (3) 
0.15567919287767354

>  <metric>  (3) 
combo

>  <metric_score>  (3) 
0.452

>  <template_pid>  (3) 
5XIJ

>  <template_shape_score>  (3) 
0.749

>  <template_color_score>  (3) 
0.156

>  <template_combo_score>  (3) 
0.452

$$$$
