5J7Q_shape_pose
     RDKit          3D

 17 19  0  0  0  0  0  0  0  0999 V2000
   44.8564   29.3196   12.2060 O   0  0  0  0  0  0  0  0  0  0  0  0
   43.4821   29.2670   12.4091 C   0  0  0  0  0  0  0  0  0  0  0  0
   42.8623   28.0928   12.8521 C   0  0  0  0  0  0  0  0  0  0  0  0
   41.4893   28.0956   13.0381 C   0  0  0  0  0  0  0  0  0  0  0  0
   40.7206   29.2164   12.8005 C   0  0  0  0  0  0  0  0  0  0  0  0
   39.2807   29.1298   13.0230 C   0  0  0  0  0  0  0  0  0  0  0  0
   38.3289   30.1127   12.8525 C   0  0  0  0  0  0  0  0  0  0  0  0
   37.1525   29.5474   13.1852 N   0  0  0  0  0  0  0  0  0  0  0  0
   35.8786   30.0317   13.2108 C   0  0  0  0  0  0  0  0  0  0  0  0
   34.8045   29.2814   13.5861 C   0  0  0  0  0  0  0  0  0  0  0  0
   34.9603   27.9690   13.9656 C   0  0  0  0  0  0  0  0  0  0  0  0
   36.2525   27.4666   13.9431 C   0  0  0  0  0  0  0  0  0  0  0  0
   37.3290   28.2638   13.5531 C   0  0  0  0  0  0  0  0  0  0  0  0
   38.6668   28.0100   13.4485 N   0  0  0  0  0  0  0  0  0  0  0  0
   41.3239   30.3782   12.3636 C   0  0  0  0  0  0  0  0  0  0  0  0
   42.6922   30.3782   12.1774 C   0  0  0  0  0  0  0  0  0  0  0  0
   43.3395   31.5269   11.7385 O   0  0  0  0  0  0  0  0  0  0  0  0
  1  2  1  0
  2  3  2  0
  3  4  1  0
  4  5  2  0
  5  6  1  0
  6  7  2  0
  7  8  1  0
  8  9  1  0
  9 10  2  0
 10 11  1  0
 11 12  2  0
 12 13  1  0
 13 14  2  0
  5 15  1  0
 15 16  2  0
 16 17  1  0
 16  2  1  0
 14  6  1  0
 13  8  1  0
M  END
>  <shape_align_shape_tanimoto>  (1) 
0.72202086726058212

>  <shape_align_color_tanimoto>  (1) 
0.060128513168605666

>  <metric>  (1) 
shape

>  <metric_score>  (1) 
0.722

>  <template_pid>  (1) 
5J7Q

>  <template_shape_score>  (1) 
0.722

>  <template_color_score>  (1) 
0.060

>  <template_combo_score>  (1) 
0.391

$$$$
5J7Q_color_pose
     RDKit          3D

 17 19  0  0  0  0  0  0  0  0999 V2000
   44.9129   29.5230   12.6504 O   0  0  0  0  0  0  0  0  0  0  0  0
   43.5266   29.4386   12.7268 C   0  0  0  0  0  0  0  0  0  0  0  0
   42.9905   28.5447   13.6587 C   0  0  0  0  0  0  0  0  0  0  0  0
   41.6152   28.4613   13.7341 C   0  0  0  0  0  0  0  0  0  0  0  0
   40.7852   29.2191   12.9330 C   0  0  0  0  0  0  0  0  0  0  0  0
   39.3410   29.0551   13.0923 C   0  0  0  0  0  0  0  0  0  0  0  0
   38.3285   29.6992   12.4087 C   0  0  0  0  0  0  0  0  0  0  0  0
   37.1583   29.2114   12.9096 N   0  0  0  0  0  0  0  0  0  0  0  0
   35.8741   29.5023   12.5937 C   0  0  0  0  0  0  0  0  0  0  0  0
   34.8402   28.8670   13.2503 C   0  0  0  0  0  0  0  0  0  0  0  0
   35.0637   27.9178   14.2466 C   0  0  0  0  0  0  0  0  0  0  0  0
   36.3962   27.6520   14.5366 C   0  0  0  0  0  0  0  0  0  0  0  0
   37.4179   28.3000   13.8666 C   0  0  0  0  0  0  0  0  0  0  0  0
   38.7767   28.2080   13.9747 N   0  0  0  0  0  0  0  0  0  0  0  0
   41.3037   30.1048   12.0096 C   0  0  0  0  0  0  0  0  0  0  0  0
   42.6830   30.1900   11.9323 C   0  0  0  0  0  0  0  0  0  0  0  0
   43.2417   31.0732   11.0118 O   0  0  0  0  0  0  0  0  0  0  0  0
  1  2  1  0
  2  3  2  0
  3  4  1  0
  4  5  2  0
  5  6  1  0
  6  7  2  0
  7  8  1  0
  8  9  1  0
  9 10  2  0
 10 11  1  0
 11 12  2  0
 12 13  1  0
 13 14  2  0
  5 15  1  0
 15 16  2  0
 16 17  1  0
 16  2  1  0
 14  6  1  0
 13  8  1  0
M  END
>  <shape_align_shape_tanimoto>  (2) 
0.71332823975259929

>  <shape_align_color_tanimoto>  (2) 
0.07843972510226635

>  <metric>  (2) 
color

>  <metric_score>  (2) 
0.078

>  <template_pid>  (2) 
5J7Q

>  <template_shape_score>  (2) 
0.713

>  <template_color_score>  (2) 
0.078

>  <template_combo_score>  (2) 
0.396

$$$$
5J7Q_combo_pose
     RDKit          3D

 17 19  0  0  0  0  0  0  0  0999 V2000
   44.8952   29.5255   12.4815 O   0  0  0  0  0  0  0  0  0  0  0  0
   43.5199   29.4026   12.6368 C   0  0  0  0  0  0  0  0  0  0  0  0
   42.9617   28.3992   13.4252 C   0  0  0  0  0  0  0  0  0  0  0  0
   41.5894   28.3240   13.5440 C   0  0  0  0  0  0  0  0  0  0  0  0
   40.7445   29.2104   12.9076 C   0  0  0  0  0  0  0  0  0  0  0  0
   39.3027   29.0645   13.0834 C   0  0  0  0  0  0  0  0  0  0  0  0
   38.3160   29.8537   12.5274 C   0  0  0  0  0  0  0  0  0  0  0  0
   37.1357   29.3408   12.9706 N   0  0  0  0  0  0  0  0  0  0  0  0
   35.8676   29.7160   12.7421 C   0  0  0  0  0  0  0  0  0  0  0  0
   34.8261   29.0114   13.3249 C   0  0  0  0  0  0  0  0  0  0  0  0
   35.0446   27.9167   14.1480 C   0  0  0  0  0  0  0  0  0  0  0  0
   36.3686   27.5510   14.3667 C   0  0  0  0  0  0  0  0  0  0  0  0
   37.3923   28.2705   13.7733 C   0  0  0  0  0  0  0  0  0  0  0  0
   38.7458   28.1012   13.8413 N   0  0  0  0  0  0  0  0  0  0  0  0
   41.2866   30.2083   12.1242 C   0  0  0  0  0  0  0  0  0  0  0  0
   42.6640   30.2974   11.9946 C   0  0  0  0  0  0  0  0  0  0  0  0
   43.2175   31.2987   11.2080 O   0  0  0  0  0  0  0  0  0  0  0  0
  1  2  1  0
  2  3  2  0
  3  4  1  0
  4  5  2  0
  5  6  1  0
  6  7  2  0
  7  8  1  0
  8  9  1  0
  9 10  2  0
 10 11  1  0
 11 12  2  0
 12 13  1  0
 13 14  2  0
  5 15  1  0
 15 16  2  0
 16 17  1  0
 16  2  1  0
 14  6  1  0
 13  8  1  0
M  END
>  <shape_align_shape_tanimoto>  (3) 
0.71727139456437361

>  <shape_align_color_tanimoto>  (3) 
0.077345921540748042

>  <metric>  (3) 
combo

>  <metric_score>  (3) 
0.397

>  <template_pid>  (3) 
5J7Q

>  <template_shape_score>  (3) 
0.717

>  <template_color_score>  (3) 
0.077

>  <template_combo_score>  (3) 
0.397

$$$$
