6GGB_shape_pose
     RDKit          3D

 23 26  0  0  0  0  0  0  0  0999 V2000
   94.0542   92.4629  -41.8934 C   0  0  0  0  0  0  0  0  0  0  0  0
   92.5641   92.5544  -41.8597 C   0  0  0  0  0  0  0  0  0  0  0  0
   92.0122   93.5310  -42.7796 N   0  0  0  0  0  0  0  0  0  0  0  0
   91.7971   94.8212  -42.4487 C   0  0  0  0  0  0  0  0  0  0  0  0
   91.9882   95.5776  -41.3007 C   0  0  0  0  0  0  0  0  0  0  0  0
   91.6703   96.9204  -41.2393 C   0  0  0  0  0  0  0  0  0  0  0  0
   91.1438   97.5143  -42.3729 C   0  0  0  0  0  0  0  0  0  0  0  0
   90.7738   98.9636  -42.3875 C   0  0  0  0  0  0  0  0  0  0  0  0
   91.8731   99.8045  -42.8033 N   0  0  0  0  0  0  0  0  0  0  0  0
   91.7541  101.1274  -42.2179 C   0  0  0  0  0  0  0  0  0  0  0  0
   90.9337   96.8092  -43.5393 C   0  0  0  0  0  0  0  0  0  0  0  0
   91.2701   95.4636  -43.5471 C   0  0  0  0  0  0  0  0  0  0  0  0
   91.1732   94.5172  -44.5558 C   0  0  0  0  0  0  0  0  0  0  0  0
   90.7208   94.5957  -45.8570 C   0  0  0  0  0  0  0  0  0  0  0  0
   90.7224   93.4929  -46.6882 C   0  0  0  0  0  0  0  0  0  0  0  0
   91.1974   92.3026  -46.1614 C   0  0  0  0  0  0  0  0  0  0  0  0
   91.2070   91.1447  -47.0101 C   0  0  0  0  0  0  0  0  0  0  0  0
   90.8275   90.9301  -48.3142 C   0  0  0  0  0  0  0  0  0  0  0  0
   90.9353   89.7453  -48.8880 C   0  0  0  0  0  0  0  0  0  0  0  0
   91.4668   88.6898  -48.0891 C   0  0  0  0  0  0  0  0  0  0  0  0
   91.8068   89.4763  -46.4702 S   0  0  0  0  0  0  0  0  0  0  0  0
   91.6545   92.1866  -44.8742 C   0  0  0  0  0  0  0  0  0  0  0  0
   91.6395   93.3151  -44.0643 C   0  0  0  0  0  0  0  0  0  0  0  0
  1  2  1  0
  2  3  1  0
  3  4  1  0
  4  5  2  0
  5  6  1  0
  6  7  2  0
  7  8  1  0
  8  9  1  0
  9 10  1  0
  7 11  1  0
 11 12  2  0
 12 13  1  0
 13 14  2  0
 14 15  1  0
 15 16  2  0
 16 17  1  0
 17 18  2  0
 18 19  1  0
 19 20  2  0
 20 21  1  0
 16 22  1  0
 22 23  2  0
 23  3  1  0
 12  4  1  0
 23 13  1  0
 21 17  1  0
M  CHG  1   9   1
M  END
>  <shape_align_shape_tanimoto>  (1) 
0.7628193627159201

>  <shape_align_color_tanimoto>  (1) 
0.11014001278621455

>  <metric>  (1) 
shape

>  <metric_score>  (1) 
0.763

>  <template_pid>  (1) 
6GGB

>  <template_shape_score>  (1) 
0.763

>  <template_color_score>  (1) 
0.110

>  <template_combo_score>  (1) 
0.436

$$$$
6GGB_color_pose
     RDKit          3D

 23 26  0  0  0  0  0  0  0  0999 V2000
   90.1704   92.1353  -45.3719 C   0  0  0  0  0  0  0  0  0  0  0  0
   91.4078   92.9624  -45.4860 C   0  0  0  0  0  0  0  0  0  0  0  0
   91.6741   93.7530  -44.3058 N   0  0  0  0  0  0  0  0  0  0  0  0
   91.2306   95.0036  -44.0840 C   0  0  0  0  0  0  0  0  0  0  0  0
   90.4578   95.9163  -44.7764 C   0  0  0  0  0  0  0  0  0  0  0  0
   90.1885   97.1559  -44.2325 C   0  0  0  0  0  0  0  0  0  0  0  0
   90.6701   97.5319  -42.9960 C   0  0  0  0  0  0  0  0  0  0  0  0
   90.3968   98.8593  -42.3849 C   0  0  0  0  0  0  0  0  0  0  0  0
   91.4770   99.7525  -42.8208 N   0  0  0  0  0  0  0  0  0  0  0  0
   92.4856   99.8351  -41.7734 C   0  0  0  0  0  0  0  0  0  0  0  0
   91.4426   96.6307  -42.2943 C   0  0  0  0  0  0  0  0  0  0  0  0
   91.7066   95.3943  -42.8455 C   0  0  0  0  0  0  0  0  0  0  0  0
   92.4501   94.3626  -42.3102 C   0  0  0  0  0  0  0  0  0  0  0  0
   93.1360   94.2244  -41.1231 C   0  0  0  0  0  0  0  0  0  0  0  0
   93.8131   93.0337  -40.8496 C   0  0  0  0  0  0  0  0  0  0  0  0
   93.7786   92.0173  -41.7813 C   0  0  0  0  0  0  0  0  0  0  0  0
   94.4664   90.7862  -41.5218 C   0  0  0  0  0  0  0  0  0  0  0  0
   94.6237   89.6296  -42.2080 C   0  0  0  0  0  0  0  0  0  0  0  0
   95.3429   88.6360  -41.6863 C   0  0  0  0  0  0  0  0  0  0  0  0
   95.9075   88.8451  -40.4340 C   0  0  0  0  0  0  0  0  0  0  0  0
   95.3866   90.5635  -39.9609 S   0  0  0  0  0  0  0  0  0  0  0  0
   93.0950   92.1472  -42.9709 C   0  0  0  0  0  0  0  0  0  0  0  0
   92.4168   93.3354  -43.2488 C   0  0  0  0  0  0  0  0  0  0  0  0
  1  2  1  0
  2  3  1  0
  3  4  1  0
  4  5  2  0
  5  6  1  0
  6  7  2  0
  7  8  1  0
  8  9  1  0
  9 10  1  0
  7 11  1  0
 11 12  2  0
 12 13  1  0
 13 14  2  0
 14 15  1  0
 15 16  2  0
 16 17  1  0
 17 18  2  0
 18 19  1  0
 19 20  2  0
 20 21  1  0
 16 22  1  0
 22 23  2  0
 23  3  1  0
 12  4  1  0
 23 13  1  0
 21 17  1  0
M  CHG  1   9   1
M  END
>  <shape_align_shape_tanimoto>  (2) 
0.64039846671168432

>  <shape_align_color_tanimoto>  (2) 
0.13466869186220284

>  <metric>  (2) 
color

>  <metric_score>  (2) 
0.135

>  <template_pid>  (2) 
6GGB

>  <template_shape_score>  (2) 
0.640

>  <template_color_score>  (2) 
0.135

>  <template_combo_score>  (2) 
0.388

$$$$
6GGB_combo_pose
     RDKit          3D

 23 26  0  0  0  0  0  0  0  0999 V2000
   94.0868   92.6123  -41.9559 C   0  0  0  0  0  0  0  0  0  0  0  0
   92.5688   92.6653  -41.8521 C   0  0  0  0  0  0  0  0  0  0  0  0
   92.0052   93.7042  -42.6878 N   0  0  0  0  0  0  0  0  0  0  0  0
   91.7705   94.9730  -42.3484 C   0  0  0  0  0  0  0  0  0  0  0  0
   91.9403   95.7221  -41.2235 C   0  0  0  0  0  0  0  0  0  0  0  0
   91.5944   97.0744  -41.1489 C   0  0  0  0  0  0  0  0  0  0  0  0
   91.0478   97.7019  -42.2714 C   0  0  0  0  0  0  0  0  0  0  0  0
   90.6818   99.1371  -42.1889 C   0  0  0  0  0  0  0  0  0  0  0  0
   91.8043   99.9683  -42.5769 N   0  0  0  0  0  0  0  0  0  0  0  0
   92.5886   99.3833  -43.6476 C   0  0  0  0  0  0  0  0  0  0  0  0
   90.8817   96.9343  -43.4004 C   0  0  0  0  0  0  0  0  0  0  0  0
   91.2250   95.5978  -43.4701 C   0  0  0  0  0  0  0  0  0  0  0  0
   91.1467   94.6547  -44.4800 C   0  0  0  0  0  0  0  0  0  0  0  0
   90.6778   94.7902  -45.7741 C   0  0  0  0  0  0  0  0  0  0  0  0
   90.7117   93.6766  -46.5880 C   0  0  0  0  0  0  0  0  0  0  0  0
   91.2063   92.4980  -46.0742 C   0  0  0  0  0  0  0  0  0  0  0  0
   91.2486   91.3087  -46.9250 C   0  0  0  0  0  0  0  0  0  0  0  0
   91.6743   90.0546  -46.6799 C   0  0  0  0  0  0  0  0  0  0  0  0
   91.6114   89.1228  -47.6347 C   0  0  0  0  0  0  0  0  0  0  0  0
   91.0950   89.5279  -48.8496 C   0  0  0  0  0  0  0  0  0  0  0  0
   90.6811   91.3117  -48.6241 S   0  0  0  0  0  0  0  0  0  0  0  0
   91.6740   92.3557  -44.7891 C   0  0  0  0  0  0  0  0  0  0  0  0
   91.6374   93.4768  -43.9772 C   0  0  0  0  0  0  0  0  0  0  0  0
  1  2  1  0
  2  3  1  0
  3  4  1  0
  4  5  2  0
  5  6  1  0
  6  7  2  0
  7  8  1  0
  8  9  1  0
  9 10  1  0
  7 11  1  0
 11 12  2  0
 12 13  1  0
 13 14  2  0
 14 15  1  0
 15 16  2  0
 16 17  1  0
 17 18  2  0
 18 19  1  0
 19 20  2  0
 20 21  1  0
 16 22  1  0
 22 23  2  0
 23  3  1  0
 12  4  1  0
 23 13  1  0
 21 17  1  0
M  CHG  1   9   1
M  END
>  <shape_align_shape_tanimoto>  (3) 
0.7597403522993762

>  <shape_align_color_tanimoto>  (3) 
0.11567107976742688

>  <metric>  (3) 
combo

>  <metric_score>  (3) 
0.438

>  <template_pid>  (3) 
6GGB

>  <template_shape_score>  (3) 
0.760

>  <template_color_score>  (3) 
0.116

>  <template_combo_score>  (3) 
0.438

$$$$
