4EP2_shape_pose
     RDKit          3D

 60 61  0  0  0  0  0  0  0  0999 V2000
   10.5502   -5.1657   14.2048 C   0  0  0  0  0  0  0  0  0  0  0  0
    9.5985   -4.0306   14.4926 C   0  0  0  0  0  0  0  0  0  0  0  0
   10.4001   -2.8160   14.8872 C   0  0  0  0  0  0  0  0  0  0  0  0
    8.5842   -4.4354   15.5678 C   0  0  2  0  0  0  0  0  0  0  0  0
    7.6778   -3.3336   15.8325 N   0  0  0  0  0  0  0  0  0  0  0  0
    6.4662   -3.1905   15.1037 C   0  0  0  0  0  0  0  0  0  0  0  0
    6.1608   -4.0198   14.2035 O   0  0  0  0  0  0  0  0  0  0  0  0
    5.5422   -2.0643   15.3829 C   0  0  2  0  0  0  0  0  0  0  0  0
    4.8213   -2.4516   16.6812 C   0  0  0  0  0  0  0  0  0  0  0  0
    4.0820   -3.7361   16.4504 C   0  0  0  0  0  0  0  0  0  0  0  0
    2.7733   -3.6141   16.0235 C   0  0  0  0  0  0  0  0  0  0  0  0
    2.0358   -4.7518   15.7820 C   0  0  0  0  0  0  0  0  0  0  0  0
    2.6346   -5.9860   15.9768 C   0  0  0  0  0  0  0  0  0  0  0  0
    1.8976   -7.1567   15.7342 O   0  0  0  0  0  0  0  0  0  0  0  0
    3.9495   -6.1124   16.4061 C   0  0  0  0  0  0  0  0  0  0  0  0
    4.6997   -4.9540   16.6517 C   0  0  0  0  0  0  0  0  0  0  0  0
    4.5546   -2.0512   14.2888 N   0  0  0  0  0  0  0  0  0  0  0  0
    4.4250   -0.8067   13.6277 C   0  0  0  0  0  0  0  0  0  0  0  0
    5.0720    0.2222   13.9376 O   0  0  0  0  0  0  0  0  0  0  0  0
    3.4682   -0.6143   12.4585 C   0  0  2  0  0  0  0  0  0  0  0  0
    4.0327   -1.4030   11.3269 C   0  0  0  0  0  0  0  0  0  0  0  0
    3.2705   -1.3945   10.0692 C   0  0  0  0  0  0  0  0  0  0  0  0
    3.4696   -0.4549    9.0809 C   0  0  0  0  0  0  0  0  0  0  0  0
    2.7044   -0.5590    7.9124 C   0  0  0  0  0  0  0  0  0  0  0  0
    1.7824   -1.5864    7.7810 C   0  0  0  0  0  0  0  0  0  0  0  0
    1.5710   -2.5347    8.7609 C   0  0  0  0  0  0  0  0  0  0  0  0
    2.3295   -2.4217    9.9060 C   0  0  0  0  0  0  0  0  0  0  0  0
    3.5485    0.8089   12.0890 N   0  0  0  0  0  0  0  0  0  0  0  0
    2.4322    1.6644   12.0281 C   0  0  0  0  0  0  0  0  0  0  0  0
    1.2450    1.3142   12.2578 O   0  0  0  0  0  0  0  0  0  0  0  0
    2.6810    3.0865   11.6719 C   0  0  1  0  0  0  0  0  0  0  0  0
    4.0820    3.3646   11.5032 N   0  0  0  0  0  0  0  0  0  0  0  0
    4.6829    4.3582   12.3563 C   0  0  0  0  0  0  0  0  0  0  0  0
    3.9345    4.9119   13.1763 O   0  0  0  0  0  0  0  0  0  0  0  0
    6.1257    4.6605   12.2169 C   0  0  2  0  0  0  0  0  0  0  0  0
    6.4635    6.0966   12.0513 C   0  0  0  0  0  0  0  0  0  0  0  0
    6.0461    6.9895   13.1877 C   0  0  0  0  0  0  0  0  0  0  0  0
    6.6668    6.5847   14.4775 C   0  0  0  0  0  0  0  0  0  0  0  0
    6.2189    5.6027   15.1311 O   0  0  0  0  0  0  0  0  0  0  0  0
    7.7541    7.2557   15.0200 O   0  0  0  0  0  0  0  0  0  0  0  0
    6.7649    3.8249   11.2091 N   0  0  0  0  0  0  0  0  0  0  0  0
    7.6746    2.8155   11.6232 C   0  0  0  0  0  0  0  0  0  0  0  0
    7.9655    2.5964   12.8322 O   0  0  0  0  0  0  0  0  0  0  0  0
    8.3387    1.9501   10.6037 C   0  0  2  0  0  0  0  0  0  0  0  0
    7.3033    1.2131    9.7717 C   0  0  0  0  0  0  0  0  0  0  0  0
    9.1509    0.9282   11.2463 N   0  0  0  0  0  0  0  0  0  0  0  0
    1.9115    3.5567   10.4736 C   0  0  1  0  0  0  0  0  0  0  0  0
    2.4332    2.9959    9.1819 C   0  0  0  0  0  0  0  0  0  0  0  0
    0.5349    3.3061   10.6201 O   0  0  0  0  0  0  0  0  0  0  0  0
    9.2745   -4.9469   16.7629 C   0  0  0  0  0  0  0  0  0  0  0  0
   10.0786   -5.9314   16.6617 O   0  0  0  0  0  0  0  0  0  0  0  0
    9.1035   -4.4026   18.0495 N   0  0  0  0  0  0  0  0  0  0  0  0
    9.8224   -4.9299   19.2330 C   0  0  1  0  0  0  0  0  0  0  0  0
   10.6442   -3.8185   19.8464 C   0  0  0  0  0  0  0  0  0  0  0  0
   11.4168   -4.2435   21.0253 C   0  0  0  0  0  0  0  0  0  0  0  0
   12.0979   -3.3489   21.6139 O   0  0  0  0  0  0  0  0  0  0  0  0
   11.4707   -5.5145   21.5471 O   0  0  0  0  0  0  0  0  0  0  0  0
    8.7549   -5.3782   20.1608 C   0  0  0  0  0  0  0  0  0  0  0  0
    8.9737   -6.1299   21.1587 O   0  0  0  0  0  0  0  0  0  0  0  0
    7.4082   -4.9956   19.9953 O   0  0  0  0  0  0  0  0  0  0  0  0
  1  2  1  0
  2  3  1  0
  2  4  1  0
  4  5  1  1
  5  6  1  0
  6  7  2  0
  6  8  1  0
  8  9  1  1
  9 10  1  0
 10 11  2  0
 11 12  1  0
 12 13  2  0
 13 14  1  0
 13 15  1  0
 15 16  2  0
  8 17  1  0
 17 18  1  0
 18 19  2  0
 18 20  1  0
 20 21  1  6
 21 22  1  0
 22 23  2  0
 23 24  1  0
 24 25  2  0
 25 26  1  0
 26 27  2  0
 20 28  1  0
 28 29  1  0
 29 30  2  0
 29 31  1  0
 31 32  1  6
 32 33  1  0
 33 34  2  0
 33 35  1  0
 35 36  1  6
 36 37  1  0
 37 38  1  0
 38 39  2  0
 38 40  1  0
 35 41  1  0
 41 42  1  0
 42 43  2  0
 42 44  1  0
 44 45  1  1
 44 46  1  0
 31 47  1  0
 47 48  1  6
 47 49  1  0
  4 50  1  0
 50 51  2  0
 50 52  1  0
 52 53  1  0
 53 54  1  1
 54 55  1  0
 55 56  2  0
 55 57  1  0
 53 58  1  0
 58 59  2  0
 58 60  1  0
 16 10  1  0
 27 22  1  0
M  CHG  4  40  -1  46   1  57  -1  60  -1
M  END
>  <shape_align_shape_tanimoto>  (1) 
0.48198085212539371

>  <shape_align_color_tanimoto>  (1) 
0.06953533447837823

>  <metric>  (1) 
shape

>  <metric_score>  (1) 
0.482

>  <template_pid>  (1) 
4EP2

>  <template_shape_score>  (1) 
0.482

>  <template_color_score>  (1) 
0.070

>  <template_combo_score>  (1) 
0.276

$$$$
4EP2_color_pose
     RDKit          3D

 60 61  0  0  0  0  0  0  0  0999 V2000
    8.2024   -5.7758   18.0607 C   0  0  0  0  0  0  0  0  0  0  0  0
    9.1046   -4.7916   17.3278 C   0  0  0  0  0  0  0  0  0  0  0  0
   10.4006   -5.4741   17.0283 C   0  0  0  0  0  0  0  0  0  0  0  0
    8.4269   -4.2823   16.0688 C   0  0  2  0  0  0  0  0  0  0  0  0
    7.2159   -3.6179   16.4569 N   0  0  0  0  0  0  0  0  0  0  0  0
    6.6597   -2.5984   15.6198 C   0  0  0  0  0  0  0  0  0  0  0  0
    7.2546   -2.3926   14.5326 O   0  0  0  0  0  0  0  0  0  0  0  0
    5.4689   -1.8886   16.1067 C   0  0  2  0  0  0  0  0  0  0  0  0
    4.4868   -2.6451   16.9071 C   0  0  0  0  0  0  0  0  0  0  0  0
    3.8407   -3.8169   16.2810 C   0  0  0  0  0  0  0  0  0  0  0  0
    4.2984   -5.1190   16.4388 C   0  0  0  0  0  0  0  0  0  0  0  0
    3.6033   -6.1631   15.8093 C   0  0  0  0  0  0  0  0  0  0  0  0
    2.4853   -5.9315   15.0389 C   0  0  0  0  0  0  0  0  0  0  0  0
    1.8438   -7.0281   14.4370 O   0  0  0  0  0  0  0  0  0  0  0  0
    2.0402   -4.6706   14.8841 C   0  0  0  0  0  0  0  0  0  0  0  0
    2.6925   -3.5877   15.4907 C   0  0  0  0  0  0  0  0  0  0  0  0
    4.8661   -0.9240   15.2117 N   0  0  0  0  0  0  0  0  0  0  0  0
    5.4534   -0.0330   14.3311 C   0  0  0  0  0  0  0  0  0  0  0  0
    6.7210    0.0276   14.2013 O   0  0  0  0  0  0  0  0  0  0  0  0
    4.7045    0.9270   13.4422 C   0  0  2  0  0  0  0  0  0  0  0  0
    3.3665    0.3489   13.1618 C   0  0  0  0  0  0  0  0  0  0  0  0
    2.4751    1.1797   12.3009 C   0  0  0  0  0  0  0  0  0  0  0  0
    1.6937    2.1230   12.9514 C   0  0  0  0  0  0  0  0  0  0  0  0
    0.7992    2.9520   12.2859 C   0  0  0  0  0  0  0  0  0  0  0  0
    0.7183    2.7931   10.9279 C   0  0  0  0  0  0  0  0  0  0  0  0
    1.4856    1.8571   10.2359 C   0  0  0  0  0  0  0  0  0  0  0  0
    2.3861    1.0320   10.9359 C   0  0  0  0  0  0  0  0  0  0  0  0
    5.5566    1.1865   12.3473 N   0  0  0  0  0  0  0  0  0  0  0  0
    5.7173    2.3681   11.5740 C   0  0  0  0  0  0  0  0  0  0  0  0
    4.9926    3.3565   11.8869 O   0  0  0  0  0  0  0  0  0  0  0  0
    6.6822    2.3636   10.4882 C   0  0  1  0  0  0  0  0  0  0  0  0
    6.5722    3.5298    9.6123 N   0  0  0  0  0  0  0  0  0  0  0  0
    7.1606    3.3551    8.3244 C   0  0  0  0  0  0  0  0  0  0  0  0
    7.7062    2.2149    8.1018 O   0  0  0  0  0  0  0  0  0  0  0  0
    7.2236    4.3197    7.2400 C   0  0  2  0  0  0  0  0  0  0  0  0
    6.0213    4.3499    6.3097 C   0  0  0  0  0  0  0  0  0  0  0  0
    4.7113    4.6640    6.9077 C   0  0  0  0  0  0  0  0  0  0  0  0
    4.1835    3.7287    7.9107 C   0  0  0  0  0  0  0  0  0  0  0  0
    3.5624    4.1690    8.8900 O   0  0  0  0  0  0  0  0  0  0  0  0
    4.4210    2.3617    7.6902 O   0  0  0  0  0  0  0  0  0  0  0  0
    8.3341    3.8524    6.3485 N   0  0  0  0  0  0  0  0  0  0  0  0
    9.3170    4.7569    5.8863 C   0  0  0  0  0  0  0  0  0  0  0  0
    9.2414    5.9692    6.2390 O   0  0  0  0  0  0  0  0  0  0  0  0
   10.4251    4.3599    5.0120 C   0  0  2  0  0  0  0  0  0  0  0  0
   11.3996    3.4132    5.7004 C   0  0  0  0  0  0  0  0  0  0  0  0
   11.2121    5.5386    4.6176 N   0  0  0  0  0  0  0  0  0  0  0  0
    8.1100    2.4486   11.0697 C   0  0  1  0  0  0  0  0  0  0  0  0
    8.3565    3.6808   11.8531 C   0  0  0  0  0  0  0  0  0  0  0  0
    8.2707    1.3594   11.9097 O   0  0  0  0  0  0  0  0  0  0  0  0
    8.4213   -5.2215   14.9687 C   0  0  0  0  0  0  0  0  0  0  0  0
    9.6218   -5.6309   14.6145 O   0  0  0  0  0  0  0  0  0  0  0  0
    7.3916   -5.7760   14.2068 N   0  0  0  0  0  0  0  0  0  0  0  0
    7.7969   -6.6832   13.1242 C   0  0  1  0  0  0  0  0  0  0  0  0
    7.6293   -8.1349   13.4721 C   0  0  0  0  0  0  0  0  0  0  0  0
    6.2387   -8.5494   13.7557 C   0  0  0  0  0  0  0  0  0  0  0  0
    5.2408   -7.8161   13.6334 O   0  0  0  0  0  0  0  0  0  0  0  0
    6.0785   -9.8798   14.1864 O   0  0  0  0  0  0  0  0  0  0  0  0
    6.9212   -6.4102   11.9389 C   0  0  0  0  0  0  0  0  0  0  0  0
    5.8867   -5.7288   12.0771 O   0  0  0  0  0  0  0  0  0  0  0  0
    7.3494   -6.9631   10.7270 O   0  0  0  0  0  0  0  0  0  0  0  0
  1  2  1  0
  2  3  1  0
  2  4  1  0
  4  5  1  1
  5  6  1  0
  6  7  2  0
  6  8  1  0
  8  9  1  6
  9 10  1  0
 10 11  2  0
 11 12  1  0
 12 13  2  0
 13 14  1  0
 13 15  1  0
 15 16  2  0
  8 17  1  0
 17 18  1  0
 18 19  2  0
 18 20  1  0
 20 21  1  6
 21 22  1  0
 22 23  2  0
 23 24  1  0
 24 25  2  0
 25 26  1  0
 26 27  2  0
 20 28  1  0
 28 29  1  0
 29 30  2  0
 29 31  1  0
 31 32  1  6
 32 33  1  0
 33 34  2  0
 33 35  1  0
 35 36  1  6
 36 37  1  0
 37 38  1  0
 38 39  2  0
 38 40  1  0
 35 41  1  0
 41 42  1  0
 42 43  2  0
 42 44  1  0
 44 45  1  1
 44 46  1  0
 31 47  1  0
 47 48  1  1
 47 49  1  0
  4 50  1  0
 50 51  2  0
 50 52  1  0
 52 53  1  0
 53 54  1  1
 54 55  1  0
 55 56  2  0
 55 57  1  0
 53 58  1  0
 58 59  2  0
 58 60  1  0
 16 10  1  0
 27 22  1  0
M  CHG  4  40  -1  46   1  57  -1  60  -1
M  END
>  <shape_align_shape_tanimoto>  (2) 
0.47262018710434217

>  <shape_align_color_tanimoto>  (2) 
0.094959991890490411

>  <metric>  (2) 
color

>  <metric_score>  (2) 
0.095

>  <template_pid>  (2) 
4EP2

>  <template_shape_score>  (2) 
0.473

>  <template_color_score>  (2) 
0.095

>  <template_combo_score>  (2) 
0.284

$$$$
4EP2_combo_pose
     RDKit          3D

 60 61  0  0  0  0  0  0  0  0999 V2000
    8.2024   -5.7758   18.0607 C   0  0  0  0  0  0  0  0  0  0  0  0
    9.1046   -4.7916   17.3278 C   0  0  0  0  0  0  0  0  0  0  0  0
   10.4006   -5.4741   17.0283 C   0  0  0  0  0  0  0  0  0  0  0  0
    8.4269   -4.2823   16.0688 C   0  0  2  0  0  0  0  0  0  0  0  0
    7.2159   -3.6179   16.4569 N   0  0  0  0  0  0  0  0  0  0  0  0
    6.6597   -2.5984   15.6198 C   0  0  0  0  0  0  0  0  0  0  0  0
    7.2546   -2.3926   14.5326 O   0  0  0  0  0  0  0  0  0  0  0  0
    5.4689   -1.8886   16.1067 C   0  0  2  0  0  0  0  0  0  0  0  0
    4.4868   -2.6451   16.9071 C   0  0  0  0  0  0  0  0  0  0  0  0
    3.8407   -3.8169   16.2810 C   0  0  0  0  0  0  0  0  0  0  0  0
    4.2984   -5.1190   16.4388 C   0  0  0  0  0  0  0  0  0  0  0  0
    3.6033   -6.1631   15.8093 C   0  0  0  0  0  0  0  0  0  0  0  0
    2.4853   -5.9315   15.0389 C   0  0  0  0  0  0  0  0  0  0  0  0
    1.8438   -7.0281   14.4370 O   0  0  0  0  0  0  0  0  0  0  0  0
    2.0402   -4.6706   14.8841 C   0  0  0  0  0  0  0  0  0  0  0  0
    2.6925   -3.5877   15.4907 C   0  0  0  0  0  0  0  0  0  0  0  0
    4.8661   -0.9240   15.2117 N   0  0  0  0  0  0  0  0  0  0  0  0
    5.4534   -0.0330   14.3311 C   0  0  0  0  0  0  0  0  0  0  0  0
    6.7210    0.0276   14.2013 O   0  0  0  0  0  0  0  0  0  0  0  0
    4.7045    0.9270   13.4422 C   0  0  2  0  0  0  0  0  0  0  0  0
    3.3665    0.3489   13.1618 C   0  0  0  0  0  0  0  0  0  0  0  0
    2.4751    1.1797   12.3009 C   0  0  0  0  0  0  0  0  0  0  0  0
    1.6937    2.1230   12.9514 C   0  0  0  0  0  0  0  0  0  0  0  0
    0.7992    2.9520   12.2859 C   0  0  0  0  0  0  0  0  0  0  0  0
    0.7183    2.7931   10.9279 C   0  0  0  0  0  0  0  0  0  0  0  0
    1.4856    1.8571   10.2359 C   0  0  0  0  0  0  0  0  0  0  0  0
    2.3861    1.0320   10.9359 C   0  0  0  0  0  0  0  0  0  0  0  0
    5.5566    1.1865   12.3473 N   0  0  0  0  0  0  0  0  0  0  0  0
    5.7173    2.3681   11.5740 C   0  0  0  0  0  0  0  0  0  0  0  0
    4.9926    3.3565   11.8869 O   0  0  0  0  0  0  0  0  0  0  0  0
    6.6822    2.3636   10.4882 C   0  0  1  0  0  0  0  0  0  0  0  0
    6.5722    3.5298    9.6123 N   0  0  0  0  0  0  0  0  0  0  0  0
    7.1606    3.3551    8.3244 C   0  0  0  0  0  0  0  0  0  0  0  0
    7.7062    2.2149    8.1018 O   0  0  0  0  0  0  0  0  0  0  0  0
    7.2236    4.3197    7.2400 C   0  0  2  0  0  0  0  0  0  0  0  0
    6.0213    4.3499    6.3097 C   0  0  0  0  0  0  0  0  0  0  0  0
    4.7113    4.6640    6.9077 C   0  0  0  0  0  0  0  0  0  0  0  0
    4.1835    3.7287    7.9107 C   0  0  0  0  0  0  0  0  0  0  0  0
    3.5624    4.1690    8.8900 O   0  0  0  0  0  0  0  0  0  0  0  0
    4.4210    2.3617    7.6902 O   0  0  0  0  0  0  0  0  0  0  0  0
    8.3341    3.8524    6.3485 N   0  0  0  0  0  0  0  0  0  0  0  0
    9.3170    4.7569    5.8863 C   0  0  0  0  0  0  0  0  0  0  0  0
    9.2414    5.9692    6.2390 O   0  0  0  0  0  0  0  0  0  0  0  0
   10.4251    4.3599    5.0120 C   0  0  2  0  0  0  0  0  0  0  0  0
   11.3996    3.4132    5.7004 C   0  0  0  0  0  0  0  0  0  0  0  0
   11.2121    5.5386    4.6176 N   0  0  0  0  0  0  0  0  0  0  0  0
    8.1100    2.4486   11.0697 C   0  0  1  0  0  0  0  0  0  0  0  0
    8.3565    3.6808   11.8531 C   0  0  0  0  0  0  0  0  0  0  0  0
    8.2707    1.3594   11.9097 O   0  0  0  0  0  0  0  0  0  0  0  0
    8.4213   -5.2215   14.9687 C   0  0  0  0  0  0  0  0  0  0  0  0
    9.6218   -5.6309   14.6145 O   0  0  0  0  0  0  0  0  0  0  0  0
    7.3916   -5.7760   14.2068 N   0  0  0  0  0  0  0  0  0  0  0  0
    7.7969   -6.6832   13.1242 C   0  0  1  0  0  0  0  0  0  0  0  0
    7.6293   -8.1349   13.4721 C   0  0  0  0  0  0  0  0  0  0  0  0
    6.2387   -8.5494   13.7557 C   0  0  0  0  0  0  0  0  0  0  0  0
    5.2408   -7.8161   13.6334 O   0  0  0  0  0  0  0  0  0  0  0  0
    6.0785   -9.8798   14.1864 O   0  0  0  0  0  0  0  0  0  0  0  0
    6.9212   -6.4102   11.9389 C   0  0  0  0  0  0  0  0  0  0  0  0
    5.8867   -5.7288   12.0771 O   0  0  0  0  0  0  0  0  0  0  0  0
    7.3494   -6.9631   10.7270 O   0  0  0  0  0  0  0  0  0  0  0  0
  1  2  1  0
  2  3  1  0
  2  4  1  0
  4  5  1  1
  5  6  1  0
  6  7  2  0
  6  8  1  0
  8  9  1  6
  9 10  1  0
 10 11  2  0
 11 12  1  0
 12 13  2  0
 13 14  1  0
 13 15  1  0
 15 16  2  0
  8 17  1  0
 17 18  1  0
 18 19  2  0
 18 20  1  0
 20 21  1  6
 21 22  1  0
 22 23  2  0
 23 24  1  0
 24 25  2  0
 25 26  1  0
 26 27  2  0
 20 28  1  0
 28 29  1  0
 29 30  2  0
 29 31  1  0
 31 32  1  6
 32 33  1  0
 33 34  2  0
 33 35  1  0
 35 36  1  6
 36 37  1  0
 37 38  1  0
 38 39  2  0
 38 40  1  0
 35 41  1  0
 41 42  1  0
 42 43  2  0
 42 44  1  0
 44 45  1  1
 44 46  1  0
 31 47  1  0
 47 48  1  1
 47 49  1  0
  4 50  1  0
 50 51  2  0
 50 52  1  0
 52 53  1  0
 53 54  1  1
 54 55  1  0
 55 56  2  0
 55 57  1  0
 53 58  1  0
 58 59  2  0
 58 60  1  0
 16 10  1  0
 27 22  1  0
M  CHG  4  40  -1  46   1  57  -1  60  -1
M  END
>  <shape_align_shape_tanimoto>  (3) 
0.47262018710434217

>  <shape_align_color_tanimoto>  (3) 
0.094959991890490411

>  <metric>  (3) 
combo

>  <metric_score>  (3) 
0.284

>  <template_pid>  (3) 
4EP2

>  <template_shape_score>  (3) 
0.473

>  <template_color_score>  (3) 
0.095

>  <template_combo_score>  (3) 
0.284

$$$$
