5VYY_shape_pose
     RDKit          3D

 27 29  0  0  0  0  0  0  0  0999 V2000
    9.5176   14.5730   26.0132 C   0  0  0  0  0  0  0  0  0  0  0  0
    8.1403   14.8315   26.2013 O   0  0  0  0  0  0  0  0  0  0  0  0
    7.2884   15.0986   25.1158 C   0  0  0  0  0  0  0  0  0  0  0  0
    7.8299   15.0877   23.9866 O   0  0  0  0  0  0  0  0  0  0  0  0
    5.8928   15.3571   25.3842 C   0  0  0  0  0  0  0  0  0  0  0  0
    5.5519   16.7031   25.5799 C   0  0  0  0  0  0  0  0  0  0  0  0
    6.5356   17.7058   25.4745 O   0  0  0  0  0  0  0  0  0  0  0  0
    4.2900   17.1156   25.8750 C   0  0  0  0  0  0  0  0  0  0  0  0
    3.3164   16.1228   25.9795 C   0  0  0  0  0  0  0  0  0  0  0  0
    1.9913   16.4918   26.2831 O   0  0  0  0  0  0  0  0  0  0  0  0
    3.6512   14.7866   25.7858 C   0  0  0  0  0  0  0  0  0  0  0  0
    2.3504   13.6325   25.9466 Cl  0  0  0  0  0  0  0  0  0  0  0  0
    4.9191   14.3571   25.4876 C   0  0  0  0  0  0  0  0  0  0  0  0
    5.3354   12.9740   25.2636 C   0  0  0  0  0  0  0  0  0  0  0  0
    5.4281   12.6614   23.8042 C   0  0  0  0  0  0  0  0  0  0  0  0
    5.9548   11.3194   23.4826 C   0  0  0  0  0  0  0  0  0  0  0  0
    7.3123   11.1414   23.3197 N   0  0  0  0  0  0  0  0  0  0  0  0
    7.5830    9.8804   23.0039 C   0  0  0  0  0  0  0  0  0  0  0  0
    6.3667    9.2361   22.9644 C   0  0  0  0  0  0  0  0  0  0  0  0
    5.3730   10.1431   23.2639 N   0  0  0  0  0  0  0  0  0  0  0  0
    4.0028    9.7148   23.3138 C   0  0  0  0  0  0  0  0  0  0  0  0
    3.5867    9.1319   24.6068 C   0  0  0  0  0  0  0  0  0  0  0  0
    2.8869    9.7873   25.5840 C   0  0  0  0  0  0  0  0  0  0  0  0
    2.5522    9.1503   26.7744 C   0  0  0  0  0  0  0  0  0  0  0  0
    2.9266    7.8393   26.9819 C   0  0  0  0  0  0  0  0  0  0  0  0
    3.6348    7.1501   26.0125 C   0  0  0  0  0  0  0  0  0  0  0  0
    3.9431    7.8215   24.8517 C   0  0  0  0  0  0  0  0  0  0  0  0
  1  2  1  0
  2  3  1  0
  3  4  2  0
  3  5  1  0
  5  6  2  0
  6  7  1  0
  6  8  1  0
  8  9  2  0
  9 10  1  0
  9 11  1  0
 11 12  1  0
 11 13  2  0
 13 14  1  0
 14 15  1  0
 15 16  1  0
 16 17  2  0
 17 18  1  0
 18 19  2  0
 19 20  1  0
 20 21  1  0
 21 22  1  0
 22 23  2  0
 23 24  1  0
 24 25  2  0
 25 26  1  0
 26 27  2  0
 13  5  1  0
 20 16  1  0
 27 22  1  0
M  END
>  <shape_align_shape_tanimoto>  (1) 
0.69137058388348382

>  <shape_align_color_tanimoto>  (1) 
0.046119535687457469

>  <metric>  (1) 
shape

>  <metric_score>  (1) 
0.691

>  <template_pid>  (1) 
5VYY

>  <template_shape_score>  (1) 
0.691

>  <template_color_score>  (1) 
0.046

>  <template_combo_score>  (1) 
0.369

$$$$
5VYY_color_pose
     RDKit          3D

 27 29  0  0  0  0  0  0  0  0999 V2000
    8.7437   11.1586   22.2633 C   0  0  0  0  0  0  0  0  0  0  0  0
    7.6258   11.0150   23.1113 O   0  0  0  0  0  0  0  0  0  0  0  0
    6.5296   10.2343   22.8888 C   0  0  0  0  0  0  0  0  0  0  0  0
    6.4446    9.5355   21.8221 O   0  0  0  0  0  0  0  0  0  0  0  0
    5.3916   10.1150   23.7975 C   0  0  0  0  0  0  0  0  0  0  0  0
    5.4459    9.1347   24.7641 C   0  0  0  0  0  0  0  0  0  0  0  0
    6.5420    8.2789   24.9072 O   0  0  0  0  0  0  0  0  0  0  0  0
    4.3983    8.9533   25.6491 C   0  0  0  0  0  0  0  0  0  0  0  0
    3.3126    9.7935   25.5140 C   0  0  0  0  0  0  0  0  0  0  0  0
    2.2239    9.6484   26.3885 O   0  0  0  0  0  0  0  0  0  0  0  0
    3.2657   10.7720   24.5447 C   0  0  0  0  0  0  0  0  0  0  0  0
    1.8555   11.8150   24.4194 Cl  0  0  0  0  0  0  0  0  0  0  0  0
    4.3172   10.9687   23.6416 C   0  0  0  0  0  0  0  0  0  0  0  0
    4.2078   12.0258   22.6514 C   0  0  0  0  0  0  0  0  0  0  0  0
    4.8885   13.3149   22.9012 C   0  0  0  0  0  0  0  0  0  0  0  0
    4.4374   14.0362   24.1178 C   0  0  0  0  0  0  0  0  0  0  0  0
    3.3775   14.9031   24.0517 N   0  0  0  0  0  0  0  0  0  0  0  0
    3.2318   15.3768   25.2962 C   0  0  0  0  0  0  0  0  0  0  0  0
    4.1650   14.8402   26.1534 C   0  0  0  0  0  0  0  0  0  0  0  0
    4.9105   13.9977   25.3724 N   0  0  0  0  0  0  0  0  0  0  0  0
    6.0312   13.2747   25.9297 C   0  0  0  0  0  0  0  0  0  0  0  0
    7.2727   14.0904   25.9258 C   0  0  0  0  0  0  0  0  0  0  0  0
    8.1917   14.1238   24.9327 C   0  0  0  0  0  0  0  0  0  0  0  0
    9.3256   14.9366   25.0400 C   0  0  0  0  0  0  0  0  0  0  0  0
    9.5299   15.7179   26.1563 C   0  0  0  0  0  0  0  0  0  0  0  0
    8.6007   15.6946   27.1786 C   0  0  0  0  0  0  0  0  0  0  0  0
    7.4951   14.8830   27.0409 C   0  0  0  0  0  0  0  0  0  0  0  0
  1  2  1  0
  2  3  1  0
  3  4  2  0
  3  5  1  0
  5  6  2  0
  6  7  1  0
  6  8  1  0
  8  9  2  0
  9 10  1  0
  9 11  1  0
 11 12  1  0
 11 13  2  0
 13 14  1  0
 14 15  1  0
 15 16  1  0
 16 17  2  0
 17 18  1  0
 18 19  2  0
 19 20  1  0
 20 21  1  0
 21 22  1  0
 22 23  2  0
 23 24  1  0
 24 25  2  0
 25 26  1  0
 26 27  2  0
 13  5  1  0
 20 16  1  0
 27 22  1  0
M  END
>  <shape_align_shape_tanimoto>  (2) 
0.50242990148212741

>  <shape_align_color_tanimoto>  (2) 
0.14286295046477618

>  <metric>  (2) 
color

>  <metric_score>  (2) 
0.143

>  <template_pid>  (2) 
5VYY

>  <template_shape_score>  (2) 
0.502

>  <template_color_score>  (2) 
0.143

>  <template_combo_score>  (2) 
0.323

$$$$
5VYY_combo_pose
     RDKit          3D

 27 29  0  0  0  0  0  0  0  0999 V2000
    1.5517   14.1177   25.6579 C   0  0  0  0  0  0  0  0  0  0  0  0
    2.8140   14.7244   25.8945 O   0  0  0  0  0  0  0  0  0  0  0  0
    3.9047   14.2223   25.1532 C   0  0  0  0  0  0  0  0  0  0  0  0
    3.6161   13.2916   24.3685 O   0  0  0  0  0  0  0  0  0  0  0  0
    5.2048   14.7962   25.3514 C   0  0  0  0  0  0  0  0  0  0  0  0
    5.3447   15.8515   26.2629 C   0  0  0  0  0  0  0  0  0  0  0  0
    4.2302   16.2956   26.9610 O   0  0  0  0  0  0  0  0  0  0  0  0
    6.5342   16.4735   26.5034 C   0  0  0  0  0  0  0  0  0  0  0  0
    7.6406   16.0376   25.8148 C   0  0  0  0  0  0  0  0  0  0  0  0
    8.8670   16.6488   26.0348 O   0  0  0  0  0  0  0  0  0  0  0  0
    7.5028   15.0036   24.9228 C   0  0  0  0  0  0  0  0  0  0  0  0
    8.9725   14.4986   24.0758 Cl  0  0  0  0  0  0  0  0  0  0  0  0
    6.2892   14.3616   24.6718 C   0  0  0  0  0  0  0  0  0  0  0  0
    6.3354   13.2362   23.7144 C   0  0  0  0  0  0  0  0  0  0  0  0
    6.4442   11.9543   24.5122 C   0  0  0  0  0  0  0  0  0  0  0  0
    6.5696   10.7394   23.6781 C   0  0  0  0  0  0  0  0  0  0  0  0
    7.8016   10.2781   23.2897 N   0  0  0  0  0  0  0  0  0  0  0  0
    7.6675    9.1821   22.5639 C   0  0  0  0  0  0  0  0  0  0  0  0
    6.3343    8.9183   22.4730 C   0  0  0  0  0  0  0  0  0  0  0  0
    5.6718    9.8972   23.1716 N   0  0  0  0  0  0  0  0  0  0  0  0
    4.2547    9.9217   23.2808 C   0  0  0  0  0  0  0  0  0  0  0  0
    3.7265    9.1655   24.4722 C   0  0  0  0  0  0  0  0  0  0  0  0
    3.4426    9.8265   25.6656 C   0  0  0  0  0  0  0  0  0  0  0  0
    2.9634    9.1128   26.7464 C   0  0  0  0  0  0  0  0  0  0  0  0
    2.7560    7.7485   26.6754 C   0  0  0  0  0  0  0  0  0  0  0  0
    3.0459    7.1329   25.4868 C   0  0  0  0  0  0  0  0  0  0  0  0
    3.5217    7.8075   24.3964 C   0  0  0  0  0  0  0  0  0  0  0  0
  1  2  1  0
  2  3  1  0
  3  4  2  0
  3  5  1  0
  5  6  2  0
  6  7  1  0
  6  8  1  0
  8  9  2  0
  9 10  1  0
  9 11  1  0
 11 12  1  0
 11 13  2  0
 13 14  1  0
 14 15  1  0
 15 16  1  0
 16 17  2  0
 17 18  1  0
 18 19  2  0
 19 20  1  0
 20 21  1  0
 21 22  1  0
 22 23  2  0
 23 24  1  0
 24 25  2  0
 25 26  1  0
 26 27  2  0
 13  5  1  0
 20 16  1  0
 27 22  1  0
M  END
>  <shape_align_shape_tanimoto>  (3) 
0.647121370271458

>  <shape_align_color_tanimoto>  (3) 
0.10126861305738133

>  <metric>  (3) 
combo

>  <metric_score>  (3) 
0.374

>  <template_pid>  (3) 
5VYY

>  <template_shape_score>  (3) 
0.647

>  <template_color_score>  (3) 
0.101

>  <template_combo_score>  (3) 
0.374

$$$$
