6AWO_shape_pose
     RDKit          3D

 20 22  0  0  0  0  0  0  0  0999 V2000
   45.5757   39.1462   92.3269 C   0  0  0  0  0  0  0  0  0  0  0  0
   45.2641   40.3215   91.5623 N   0  0  0  0  0  0  0  0  0  0  0  0
   44.8591   40.0110   90.2086 C   0  0  1  0  0  0  0  0  0  0  0  0
   46.0385   39.5876   89.4039 C   0  0  0  0  0  0  0  0  0  0  0  0
   45.8890   38.2921   88.6681 C   0  0  0  0  0  0  0  0  0  0  0  0
   44.4946   38.3124   88.0396 C   0  0  1  0  0  0  0  0  0  0  0  0
   44.3330   37.2666   87.0271 C   0  0  0  0  0  0  0  0  0  0  0  0
   43.4614   37.4127   85.9599 C   0  0  0  0  0  0  0  0  0  0  0  0
   43.3560   36.3807   85.0338 C   0  0  0  0  0  0  0  0  0  0  0  0
   44.1014   35.2182   85.1584 C   0  0  0  0  0  0  0  0  0  0  0  0
   43.9584   33.9144   83.9752 Cl  0  0  0  0  0  0  0  0  0  0  0  0
   44.9778   35.0693   86.2300 C   0  0  0  0  0  0  0  0  0  0  0  0
   45.9319   33.6206   86.4195 Cl  0  0  0  0  0  0  0  0  0  0  0  0
   45.0819   36.1013   87.1544 C   0  0  0  0  0  0  0  0  0  0  0  0
   43.5663   38.1750   89.1815 C   0  0  0  0  0  0  0  0  0  0  0  0
   42.5805   37.2384   89.1355 C   0  0  0  0  0  0  0  0  0  0  0  0
   41.7124   37.1050   90.1954 C   0  0  0  0  0  0  0  0  0  0  0  0
   41.8766   37.9447   91.2910 C   0  0  0  0  0  0  0  0  0  0  0  0
   42.8883   38.8906   91.3136 C   0  0  0  0  0  0  0  0  0  0  0  0
   43.7679   39.0358   90.2559 C   0  0  0  0  0  0  0  0  0  0  0  0
  1  2  1  0
  3  2  1  1
  3  4  1  0
  4  5  1  0
  5  6  1  0
  6  7  1  6
  7  8  2  0
  8  9  1  0
  9 10  2  0
 10 11  1  0
 10 12  1  0
 12 13  1  0
 12 14  2  0
  6 15  1  0
 15 16  2  0
 16 17  1  0
 17 18  2  0
 18 19  1  0
 19 20  2  0
 20  3  1  0
 14  7  1  0
 20 15  1  0
M  CHG  1   2   1
M  END
>  <shape_align_shape_tanimoto>  (1) 
0.73629712196000152

>  <shape_align_color_tanimoto>  (1) 
0.087200103948525315

>  <metric>  (1) 
shape

>  <metric_score>  (1) 
0.736

>  <template_pid>  (1) 
6AWO

>  <template_shape_score>  (1) 
0.736

>  <template_color_score>  (1) 
0.087

>  <template_combo_score>  (1) 
0.412

$$$$
6AWO_color_pose
     RDKit          3D

 20 22  0  0  0  0  0  0  0  0999 V2000
   42.0548   41.2861   90.6069 C   0  0  0  0  0  0  0  0  0  0  0  0
   42.2154   40.3354   91.6617 N   0  0  0  0  0  0  0  0  0  0  0  0
   42.7443   39.0682   91.2202 C   0  0  1  0  0  0  0  0  0  0  0  0
   41.8133   38.4776   90.1707 C   0  0  0  0  0  0  0  0  0  0  0  0
   42.2291   37.0904   89.7818 C   0  0  0  0  0  0  0  0  0  0  0  0
   43.6775   36.9332   89.4619 C   0  0  1  0  0  0  0  0  0  0  0  0
   43.8977   36.5099   88.0598 C   0  0  0  0  0  0  0  0  0  0  0  0
   44.8861   35.5855   87.7091 C   0  0  0  0  0  0  0  0  0  0  0  0
   45.0917   35.1913   86.4058 C   0  0  0  0  0  0  0  0  0  0  0  0
   44.3182   35.7018   85.3824 C   0  0  0  0  0  0  0  0  0  0  0  0
   44.6080   35.1776   83.7367 Cl  0  0  0  0  0  0  0  0  0  0  0  0
   43.3340   36.6170   85.6996 C   0  0  0  0  0  0  0  0  0  0  0  0
   42.3621   37.2517   84.3734 Cl  0  0  0  0  0  0  0  0  0  0  0  0
   43.1332   37.0073   87.0050 C   0  0  0  0  0  0  0  0  0  0  0  0
   44.5026   38.1289   89.7777 C   0  0  0  0  0  0  0  0  0  0  0  0
   45.7586   38.2352   89.2188 C   0  0  0  0  0  0  0  0  0  0  0  0
   46.5796   39.3377   89.4802 C   0  0  0  0  0  0  0  0  0  0  0  0
   46.1569   40.3567   90.3083 C   0  0  0  0  0  0  0  0  0  0  0  0
   44.8967   40.2285   90.8561 C   0  0  0  0  0  0  0  0  0  0  0  0
   44.0731   39.1452   90.6076 C   0  0  0  0  0  0  0  0  0  0  0  0
  1  2  1  0
  3  2  1  6
  3  4  1  0
  4  5  1  0
  5  6  1  0
  6  7  1  6
  7  8  2  0
  8  9  1  0
  9 10  2  0
 10 11  1  0
 10 12  1  0
 12 13  1  0
 12 14  2  0
  6 15  1  0
 15 16  2  0
 16 17  1  0
 17 18  2  0
 18 19  1  0
 19 20  2  0
 20  3  1  0
 14  7  1  0
 20 15  1  0
M  CHG  1   2   1
M  END
>  <shape_align_shape_tanimoto>  (2) 
0.59329708132959724

>  <shape_align_color_tanimoto>  (2) 
0.1368095256596607

>  <metric>  (2) 
color

>  <metric_score>  (2) 
0.137

>  <template_pid>  (2) 
6AWO

>  <template_shape_score>  (2) 
0.593

>  <template_color_score>  (2) 
0.137

>  <template_combo_score>  (2) 
0.365

$$$$
6AWO_combo_pose
     RDKit          3D

 20 22  0  0  0  0  0  0  0  0999 V2000
   41.5020   38.9372   93.0420 C   0  0  0  0  0  0  0  0  0  0  0  0
   42.7062   39.2262   92.3036 N   0  0  0  0  0  0  0  0  0  0  0  0
   42.9432   38.3426   91.2099 C   0  0  1  0  0  0  0  0  0  0  0  0
   41.8098   38.3886   90.2307 C   0  0  0  0  0  0  0  0  0  0  0  0
   42.0573   37.7137   88.9305 C   0  0  0  0  0  0  0  0  0  0  0  0
   43.4600   37.1736   88.8359 C   0  0  1  0  0  0  0  0  0  0  0  0
   43.7776   36.5797   87.5490 C   0  0  0  0  0  0  0  0  0  0  0  0
   43.2766   37.0662   86.3546 C   0  0  0  0  0  0  0  0  0  0  0  0
   43.5939   36.4813   85.1290 C   0  0  0  0  0  0  0  0  0  0  0  0
   44.4329   35.3798   85.0748 C   0  0  0  0  0  0  0  0  0  0  0  0
   44.8428   34.6317   83.5440 Cl  0  0  0  0  0  0  0  0  0  0  0  0
   44.9377   34.8875   86.2626 C   0  0  0  0  0  0  0  0  0  0  0  0
   45.9942   33.4957   86.1600 Cl  0  0  0  0  0  0  0  0  0  0  0  0
   44.6124   35.4798   87.4664 C   0  0  0  0  0  0  0  0  0  0  0  0
   44.3996   38.2407   89.2525 C   0  0  0  0  0  0  0  0  0  0  0  0
   45.4603   38.5925   88.4587 C   0  0  0  0  0  0  0  0  0  0  0  0
   46.2886   39.6084   88.9376 C   0  0  0  0  0  0  0  0  0  0  0  0
   46.0322   40.2141   90.1534 C   0  0  0  0  0  0  0  0  0  0  0  0
   44.9520   39.8442   90.9447 C   0  0  0  0  0  0  0  0  0  0  0  0
   44.1427   38.8502   90.4747 C   0  0  0  0  0  0  0  0  0  0  0  0
  1  2  1  0
  3  2  1  1
  3  4  1  0
  4  5  1  0
  5  6  1  0
  6  7  1  6
  7  8  2  0
  8  9  1  0
  9 10  2  0
 10 11  1  0
 10 12  1  0
 12 13  1  0
 12 14  2  0
  6 15  1  0
 15 16  2  0
 16 17  1  0
 17 18  2  0
 18 19  1  0
 19 20  2  0
 20  3  1  0
 14  7  1  0
 20 15  1  0
M  CHG  1   2   1
M  END
>  <shape_align_shape_tanimoto>  (3) 
0.7153204271359962

>  <shape_align_color_tanimoto>  (3) 
0.11778553357131324

>  <metric>  (3) 
combo

>  <metric_score>  (3) 
0.417

>  <template_pid>  (3) 
6AWO

>  <template_shape_score>  (3) 
0.715

>  <template_color_score>  (3) 
0.118

>  <template_combo_score>  (3) 
0.417

$$$$
