2PUY_shape_pose
     RDKit          3D

 80 79  0  0  0  0  0  0  0  0999 V2000
   11.3278  -34.5151   -2.5961 C   0  0  0  0  0  0  0  0  0  0  0  0
   10.0761  -34.1663   -1.8383 C   0  0  2  0  0  0  0  0  0  0  0  0
   10.3377  -34.1082   -0.4270 N   0  0  0  0  0  0  0  0  0  0  0  0
    9.0931  -35.2781   -2.0759 C   0  0  0  0  0  0  0  0  0  0  0  0
    8.6035  -35.8025   -1.0548 O   0  0  0  0  0  0  0  0  0  0  0  0
    8.8236  -35.6120   -3.4083 N   0  0  0  0  0  0  0  0  0  0  0  0
    7.9119  -36.6366   -3.8688 C   0  0  1  0  0  0  0  0  0  0  0  0
    6.8966  -36.0977   -4.8254 C   0  0  0  0  0  0  0  0  0  0  0  0
    6.0753  -35.0384   -4.1223 C   0  0  0  0  0  0  0  0  0  0  0  0
    5.0482  -34.4691   -5.0350 C   0  0  0  0  0  0  0  0  0  0  0  0
    4.2952  -33.4732   -4.2620 N   0  0  0  0  0  0  0  0  0  0  0  0
    3.2409  -32.7132   -4.7922 C   0  0  0  0  0  0  0  0  0  0  0  0
    2.5327  -31.7870   -3.9621 N   0  0  0  0  0  0  0  0  0  0  0  0
    2.8633  -32.8442   -6.0161 N   0  0  0  0  0  0  0  0  0  0  0  0
    8.6840  -37.7534   -4.4332 C   0  0  0  0  0  0  0  0  0  0  0  0
    9.9389  -37.7300   -4.2511 O   0  0  0  0  0  0  0  0  0  0  0  0
    8.1718  -38.8459   -5.1513 N   0  0  0  0  0  0  0  0  0  0  0  0
    9.1459  -39.8662   -5.5715 C   0  0  2  0  0  0  0  0  0  0  0  0
    9.6868  -39.4655   -6.8771 C   0  0  0  0  0  0  0  0  0  0  0  0
   10.6837  -40.1430   -7.3118 O   0  0  0  0  0  0  0  0  0  0  0  0
    9.1950  -38.4160   -7.6559 N   0  0  0  0  0  0  0  0  0  0  0  0
    9.8660  -38.0717   -8.9932 C   0  0  1  0  0  0  0  0  0  0  0  0
    9.1782  -38.9131   -9.9957 C   0  0  0  0  0  0  0  0  0  0  0  0
    9.5710  -38.8745  -11.4126 C   0  0  0  0  0  0  0  0  0  0  0  0
   10.9094  -39.2914  -11.8644 C   0  0  0  0  0  0  0  0  0  0  0  0
   12.1115  -38.5365  -11.4654 C   0  0  0  0  0  0  0  0  0  0  0  0
   13.3286  -39.1676  -12.0739 N   0  0  0  0  0  0  0  0  0  0  0  0
    9.6560  -36.6249   -9.1304 C   0  0  0  0  0  0  0  0  0  0  0  0
    8.9939  -36.0892   -8.1630 O   0  0  0  0  0  0  0  0  0  0  0  0
   10.0605  -35.7474  -10.1454 N   0  0  0  0  0  0  0  0  0  0  0  0
    9.6594  -34.3488   -9.9567 C   0  0  1  0  0  0  0  0  0  0  0  0
   10.5313  -33.3996  -10.6873 C   0  0  0  0  0  0  0  0  0  0  0  0
   11.9817  -33.4134  -10.3451 C   0  0  0  0  0  0  0  0  0  0  0  0
   12.6283  -32.3826  -11.2272 C   0  0  0  0  0  0  0  0  0  0  0  0
   14.0462  -32.2392  -11.3047 N   0  0  0  0  0  0  0  0  0  0  0  0
   11.9538  -31.5937  -11.9448 O   0  0  0  0  0  0  0  0  0  0  0  0
    8.2878  -34.1991  -10.6311 C   0  0  0  0  0  0  0  0  0  0  0  0
    8.0237  -35.0885  -11.4845 O   0  0  0  0  0  0  0  0  0  0  0  0
    7.4241  -33.1307  -10.2766 N   0  0  0  0  0  0  0  0  0  0  0  0
    6.1355  -32.9963  -10.9175 C   0  0  2  0  0  0  0  0  0  0  0  0
    5.4222  -31.8013  -10.4798 C   0  0  0  0  0  0  0  0  0  0  0  0
    4.3783  -31.4810  -11.1284 O   0  0  0  0  0  0  0  0  0  0  0  0
    5.7642  -30.9597   -9.3950 N   0  0  0  0  0  0  0  0  0  0  0  0
    4.9067  -29.8293   -9.1247 C   0  0  1  0  0  0  0  0  0  0  0  0
    3.8302  -30.3569   -8.1091 C   0  0  0  0  0  0  0  0  0  0  0  0
    5.6080  -28.7025   -8.4627 C   0  0  0  0  0  0  0  0  0  0  0  0
    6.8264  -28.8750   -8.1600 O   0  0  0  0  0  0  0  0  0  0  0  0
    4.9222  -27.4683   -8.1791 N   0  0  0  0  0  0  0  0  0  0  0  0
    5.6533  -26.4510   -7.5131 C   0  0  1  0  0  0  0  0  0  0  0  0
    6.6801  -25.7153   -8.3337 C   0  0  0  0  0  0  0  0  0  0  0  0
    6.2428  -24.9656   -9.5177 C   0  0  0  0  0  0  0  0  0  0  0  0
    5.6102  -25.8518  -10.5542 C   0  0  0  0  0  0  0  0  0  0  0  0
    6.6032  -26.8558  -10.9568 N   0  0  0  0  0  0  0  0  0  0  0  0
    6.2472  -27.8115  -11.9512 C   0  0  0  0  0  0  0  0  0  0  0  0
    7.2341  -28.7870  -12.3333 N   0  0  0  0  0  0  0  0  0  0  0  0
    5.0958  -27.8444  -12.5182 N   0  0  0  0  0  0  0  0  0  0  0  0
    4.8178  -25.5100   -6.7328 C   0  0  0  0  0  0  0  0  0  0  0  0
    5.4469  -24.6803   -5.9955 O   0  0  0  0  0  0  0  0  0  0  0  0
    3.4254  -25.4407   -6.7265 N   0  0  0  0  0  0  0  0  0  0  0  0
    2.6601  -24.4957   -5.9403 C   0  0  1  0  0  0  0  0  0  0  0  0
    2.3345  -23.2611   -6.7561 C   0  0  0  0  0  0  0  0  0  0  0  0
    1.5479  -22.2790   -5.9647 C   0  0  0  0  0  0  0  0  0  0  0  0
    2.2265  -21.7892   -4.7020 C   0  0  0  0  0  0  0  0  0  0  0  0
    1.2994  -20.8006   -4.0361 C   0  0  0  0  0  0  0  0  0  0  0  0
    1.0581  -19.6753   -4.8908 N   0  0  0  0  0  0  0  0  0  0  0  0
    1.4933  -25.1300   -5.3642 C   0  0  0  0  0  0  0  0  0  0  0  0
    0.6983  -24.4606   -4.6074 O   0  0  0  0  0  0  0  0  0  0  0  0
    1.1041  -26.4919   -5.5532 N   0  0  0  0  0  0  0  0  0  0  0  0
   -0.0904  -27.0036   -4.9391 C   0  0  1  0  0  0  0  0  0  0  0  0
   -1.1036  -27.2153   -6.0695 C   0  0  0  0  0  0  0  0  0  0  0  0
   -1.2734  -25.9407   -6.6617 O   0  0  0  0  0  0  0  0  0  0  0  0
    0.0776  -28.1956   -4.1123 C   0  0  0  0  0  0  0  0  0  0  0  0
    0.5218  -28.2009   -2.9344 O   0  0  0  0  0  0  0  0  0  0  0  0
   -0.2717  -29.4637   -4.6345 O   0  0  0  0  0  0  0  0  0  0  0  0
    5.2790  -34.2483  -10.4766 C   0  0  1  0  0  0  0  0  0  0  0  0
    5.1445  -34.2239   -8.9904 C   0  0  0  0  0  0  0  0  0  0  0  0
    4.0590  -34.0833  -11.0839 O   0  0  0  0  0  0  0  0  0  0  0  0
    8.4336  -41.1780   -5.5515 C   0  0  1  0  0  0  0  0  0  0  0  0
    9.3604  -42.3053   -5.8550 C   0  0  0  0  0  0  0  0  0  0  0  0
    8.0079  -41.3653   -4.2152 O   0  0  0  0  0  0  0  0  0  0  0  0
  2  1  1  6
  2  3  1  0
  2  4  1  0
  4  5  2  0
  4  6  1  0
  6  7  1  0
  7  8  1  6
  8  9  1  0
  9 10  1  0
 10 11  1  0
 11 12  1  0
 12 13  1  0
 12 14  2  0
  7 15  1  0
 15 16  2  0
 15 17  1  0
 18 17  1  6
 18 19  1  0
 19 20  2  0
 19 21  1  0
 21 22  1  0
 22 23  1  6
 23 24  1  0
 24 25  1  0
 25 26  1  0
 26 27  1  0
 22 28  1  0
 28 29  2  0
 28 30  1  0
 30 31  1  0
 31 32  1  6
 32 33  1  0
 33 34  1  0
 34 35  1  0
 34 36  2  0
 31 37  1  0
 37 38  2  0
 37 39  1  0
 40 39  1  1
 40 41  1  0
 41 42  2  0
 41 43  1  0
 43 44  1  0
 44 45  1  1
 44 46  1  0
 46 47  2  0
 46 48  1  0
 48 49  1  0
 49 50  1  6
 50 51  1  0
 51 52  1  0
 52 53  1  0
 53 54  1  0
 54 55  1  0
 54 56  2  0
 49 57  1  0
 57 58  2  0
 57 59  1  0
 59 60  1  0
 60 61  1  6
 61 62  1  0
 62 63  1  0
 63 64  1  0
 64 65  1  0
 60 66  1  0
 66 67  2  0
 66 68  1  0
 68 69  1  0
 69 70  1  6
 70 71  1  0
 69 72  1  0
 72 73  2  0
 72 74  1  0
 40 75  1  0
 75 76  1  1
 75 77  1  0
 18 78  1  0
 78 79  1  1
 78 80  1  0
M  CHG  6   3   1  14   1  27   1  56   1  65   1  74  -1
M  END
>  <shape_align_shape_tanimoto>  (1) 
0.29910688702707966

>  <shape_align_color_tanimoto>  (1) 
0.015235668934844612

>  <metric>  (1) 
shape

>  <metric_score>  (1) 
0.299

>  <template_pid>  (1) 
2PUY

>  <template_shape_score>  (1) 
0.299

>  <template_color_score>  (1) 
0.015

>  <template_combo_score>  (1) 
0.157

$$$$
2PUY_color_pose
     RDKit          3D

 80 79  0  0  0  0  0  0  0  0999 V2000
    9.3616  -27.6522   -4.2350 C   0  0  0  0  0  0  0  0  0  0  0  0
    9.4078  -28.6903   -5.3485 C   0  0  2  0  0  0  0  0  0  0  0  0
    8.0468  -28.8905   -5.7969 N   0  0  0  0  0  0  0  0  0  0  0  0
   10.0398  -29.8872   -4.7848 C   0  0  0  0  0  0  0  0  0  0  0  0
   11.2486  -29.7816   -4.3954 O   0  0  0  0  0  0  0  0  0  0  0  0
    9.3588  -31.1525   -4.6568 N   0  0  0  0  0  0  0  0  0  0  0  0
   10.0964  -32.2248   -4.0926 C   0  0  1  0  0  0  0  0  0  0  0  0
    9.9605  -32.5534   -2.6628 C   0  0  0  0  0  0  0  0  0  0  0  0
    8.6694  -32.9558   -2.0735 C   0  0  0  0  0  0  0  0  0  0  0  0
    7.5910  -31.9258   -2.1230 C   0  0  0  0  0  0  0  0  0  0  0  0
    6.3426  -32.3241   -1.4993 N   0  0  0  0  0  0  0  0  0  0  0  0
    6.1523  -32.5094   -0.1171 C   0  0  0  0  0  0  0  0  0  0  0  0
    4.8249  -32.9099    0.2945 N   0  0  0  0  0  0  0  0  0  0  0  0
    7.0444  -32.3485    0.7874 N   0  0  0  0  0  0  0  0  0  0  0  0
    9.9580  -33.4237   -4.9784 C   0  0  0  0  0  0  0  0  0  0  0  0
   10.5458  -34.4678   -4.5691 O   0  0  0  0  0  0  0  0  0  0  0  0
    9.2333  -33.4297   -6.1901 N   0  0  0  0  0  0  0  0  0  0  0  0
    9.2006  -34.6833   -6.9273 C   0  0  2  0  0  0  0  0  0  0  0  0
   10.0132  -34.5843   -8.1670 C   0  0  0  0  0  0  0  0  0  0  0  0
   10.1799  -35.6661   -8.8100 O   0  0  0  0  0  0  0  0  0  0  0  0
   10.5573  -33.3452   -8.5864 N   0  0  0  0  0  0  0  0  0  0  0  0
   11.3602  -33.1683   -9.7668 C   0  0  1  0  0  0  0  0  0  0  0  0
   12.5989  -34.0570   -9.7474 C   0  0  0  0  0  0  0  0  0  0  0  0
   13.4744  -33.7515   -8.5450 C   0  0  0  0  0  0  0  0  0  0  0  0
   14.7184  -34.6433   -8.5300 C   0  0  0  0  0  0  0  0  0  0  0  0
   15.5198  -34.2559   -7.2852 C   0  0  0  0  0  0  0  0  0  0  0  0
   14.6544  -34.5078   -6.1324 N   0  0  0  0  0  0  0  0  0  0  0  0
   10.6666  -33.3819  -11.0410 C   0  0  0  0  0  0  0  0  0  0  0  0
   11.3471  -33.1803  -12.1059 O   0  0  0  0  0  0  0  0  0  0  0  0
    9.3233  -33.7928  -11.1894 N   0  0  0  0  0  0  0  0  0  0  0  0
    8.6646  -34.0110  -12.4622 C   0  0  1  0  0  0  0  0  0  0  0  0
    8.4700  -35.5127  -12.6993 C   0  0  0  0  0  0  0  0  0  0  0  0
    9.7564  -36.2861  -12.7137 C   0  0  0  0  0  0  0  0  0  0  0  0
   10.7144  -35.8913  -13.7676 C   0  0  0  0  0  0  0  0  0  0  0  0
   11.9871  -36.5461  -13.7525 N   0  0  0  0  0  0  0  0  0  0  0  0
   10.5019  -35.0417  -14.6592 O   0  0  0  0  0  0  0  0  0  0  0  0
    7.2877  -33.4193  -12.5053 C   0  0  0  0  0  0  0  0  0  0  0  0
    6.6045  -33.6462  -13.5598 O   0  0  0  0  0  0  0  0  0  0  0  0
    6.7888  -32.6629  -11.4365 N   0  0  0  0  0  0  0  0  0  0  0  0
    5.4700  -32.0734  -11.3616 C   0  0  2  0  0  0  0  0  0  0  0  0
    5.4492  -30.6097  -11.5821 C   0  0  0  0  0  0  0  0  0  0  0  0
    6.4406  -29.9364  -11.9605 O   0  0  0  0  0  0  0  0  0  0  0  0
    4.2198  -29.9410  -11.3429 N   0  0  0  0  0  0  0  0  0  0  0  0
    4.0039  -28.5280  -11.5123 C   0  0  1  0  0  0  0  0  0  0  0  0
    2.6518  -28.1656  -11.9555 C   0  0  0  0  0  0  0  0  0  0  0  0
    4.4205  -27.8770  -10.2241 C   0  0  0  0  0  0  0  0  0  0  0  0
    4.9742  -28.6065   -9.3781 O   0  0  0  0  0  0  0  0  0  0  0  0
    4.1893  -26.4992  -10.0045 N   0  0  0  0  0  0  0  0  0  0  0  0
    4.6856  -25.9288   -8.6722 C   0  0  1  0  0  0  0  0  0  0  0  0
    5.2666  -24.6238   -8.9542 C   0  0  0  0  0  0  0  0  0  0  0  0
    5.9044  -23.9017   -7.8186 C   0  0  0  0  0  0  0  0  0  0  0  0
    7.0776  -24.6423   -7.2335 C   0  0  0  0  0  0  0  0  0  0  0  0
    7.8482  -23.9298   -6.2755 N   0  0  0  0  0  0  0  0  0  0  0  0
    7.5419  -23.4475   -5.0104 C   0  0  0  0  0  0  0  0  0  0  0  0
    8.5746  -22.7404   -4.2795 N   0  0  0  0  0  0  0  0  0  0  0  0
    6.4055  -23.5902   -4.4565 N   0  0  0  0  0  0  0  0  0  0  0  0
    3.4781  -25.9768   -7.8007 C   0  0  0  0  0  0  0  0  0  0  0  0
    2.3920  -26.2795   -8.4077 O   0  0  0  0  0  0  0  0  0  0  0  0
    3.4138  -25.7395   -6.4272 N   0  0  0  0  0  0  0  0  0  0  0  0
    2.1510  -25.8390   -5.7263 C   0  0  1  0  0  0  0  0  0  0  0  0
    2.2090  -27.0412   -4.7714 C   0  0  0  0  0  0  0  0  0  0  0  0
    2.4566  -28.3058   -5.5244 C   0  0  0  0  0  0  0  0  0  0  0  0
    2.5822  -29.5669   -4.7700 C   0  0  0  0  0  0  0  0  0  0  0  0
    1.4279  -30.0276   -3.9540 C   0  0  0  0  0  0  0  0  0  0  0  0
    1.0489  -29.1756   -2.8793 N   0  0  0  0  0  0  0  0  0  0  0  0
    1.7771  -24.6180   -5.0104 C   0  0  0  0  0  0  0  0  0  0  0  0
    0.6817  -24.6372   -4.3640 O   0  0  0  0  0  0  0  0  0  0  0  0
    2.5173  -23.4261   -4.9711 N   0  0  0  0  0  0  0  0  0  0  0  0
    2.0914  -22.2736   -4.2465 C   0  0  1  0  0  0  0  0  0  0  0  0
    3.0081  -21.7889   -3.1803 C   0  0  0  0  0  0  0  0  0  0  0  0
    2.3862  -20.6519   -2.6099 O   0  0  0  0  0  0  0  0  0  0  0  0
    1.7601  -21.1318   -5.1448 C   0  0  0  0  0  0  0  0  0  0  0  0
    2.1809  -21.1017   -6.3497 O   0  0  0  0  0  0  0  0  0  0  0  0
    0.9738  -20.0864   -4.6401 O   0  0  0  0  0  0  0  0  0  0  0  0
    4.7847  -32.5488  -10.1322 C   0  0  1  0  0  0  0  0  0  0  0  0
    4.8320  -34.0865  -10.1934 C   0  0  0  0  0  0  0  0  0  0  0  0
    5.4560  -32.2134   -8.9606 O   0  0  0  0  0  0  0  0  0  0  0  0
    7.7842  -35.0217   -7.2642 C   0  0  1  0  0  0  0  0  0  0  0  0
    7.6722  -36.2911   -8.0630 C   0  0  0  0  0  0  0  0  0  0  0  0
    7.0076  -35.1638   -6.1176 O   0  0  0  0  0  0  0  0  0  0  0  0
  2  1  1  1
  2  3  1  0
  2  4  1  0
  4  5  2  0
  4  6  1  0
  6  7  1  0
  7  8  1  1
  8  9  1  0
  9 10  1  0
 10 11  1  0
 11 12  1  0
 12 13  1  0
 12 14  2  0
  7 15  1  0
 15 16  2  0
 15 17  1  0
 18 17  1  6
 18 19  1  0
 19 20  2  0
 19 21  1  0
 21 22  1  0
 22 23  1  1
 23 24  1  0
 24 25  1  0
 25 26  1  0
 26 27  1  0
 22 28  1  0
 28 29  2  0
 28 30  1  0
 30 31  1  0
 31 32  1  1
 32 33  1  0
 33 34  1  0
 34 35  1  0
 34 36  2  0
 31 37  1  0
 37 38  2  0
 37 39  1  0
 40 39  1  1
 40 41  1  0
 41 42  2  0
 41 43  1  0
 43 44  1  0
 44 45  1  1
 44 46  1  0
 46 47  2  0
 46 48  1  0
 48 49  1  0
 49 50  1  6
 50 51  1  0
 51 52  1  0
 52 53  1  0
 53 54  1  0
 54 55  1  0
 54 56  2  0
 49 57  1  0
 57 58  2  0
 57 59  1  0
 59 60  1  0
 60 61  1  1
 61 62  1  0
 62 63  1  0
 63 64  1  0
 64 65  1  0
 60 66  1  0
 66 67  2  0
 66 68  1  0
 68 69  1  0
 69 70  1  1
 70 71  1  0
 69 72  1  0
 72 73  2  0
 72 74  1  0
 40 75  1  0
 75 76  1  6
 75 77  1  0
 18 78  1  0
 78 79  1  1
 78 80  1  0
M  CHG  6   3   1  14   1  27   1  56   1  65   1  74  -1
M  END
>  <shape_align_shape_tanimoto>  (2) 
0.27008687998213038

>  <shape_align_color_tanimoto>  (2) 
0.056292552125572187

>  <metric>  (2) 
color

>  <metric_score>  (2) 
0.056

>  <template_pid>  (2) 
2PUY

>  <template_shape_score>  (2) 
0.270

>  <template_color_score>  (2) 
0.056

>  <template_combo_score>  (2) 
0.163

$$$$
2PUY_combo_pose
     RDKit          3D

 80 79  0  0  0  0  0  0  0  0999 V2000
    9.3616  -27.6522   -4.2350 C   0  0  0  0  0  0  0  0  0  0  0  0
    9.4078  -28.6903   -5.3485 C   0  0  2  0  0  0  0  0  0  0  0  0
    8.0468  -28.8905   -5.7969 N   0  0  0  0  0  0  0  0  0  0  0  0
   10.0398  -29.8872   -4.7848 C   0  0  0  0  0  0  0  0  0  0  0  0
   11.2486  -29.7816   -4.3954 O   0  0  0  0  0  0  0  0  0  0  0  0
    9.3588  -31.1525   -4.6568 N   0  0  0  0  0  0  0  0  0  0  0  0
   10.0964  -32.2248   -4.0926 C   0  0  1  0  0  0  0  0  0  0  0  0
    9.9605  -32.5534   -2.6628 C   0  0  0  0  0  0  0  0  0  0  0  0
    8.6694  -32.9558   -2.0735 C   0  0  0  0  0  0  0  0  0  0  0  0
    7.5910  -31.9258   -2.1230 C   0  0  0  0  0  0  0  0  0  0  0  0
    6.3426  -32.3241   -1.4993 N   0  0  0  0  0  0  0  0  0  0  0  0
    6.1523  -32.5094   -0.1171 C   0  0  0  0  0  0  0  0  0  0  0  0
    4.8249  -32.9099    0.2945 N   0  0  0  0  0  0  0  0  0  0  0  0
    7.0444  -32.3485    0.7874 N   0  0  0  0  0  0  0  0  0  0  0  0
    9.9580  -33.4237   -4.9784 C   0  0  0  0  0  0  0  0  0  0  0  0
   10.5458  -34.4678   -4.5691 O   0  0  0  0  0  0  0  0  0  0  0  0
    9.2333  -33.4297   -6.1901 N   0  0  0  0  0  0  0  0  0  0  0  0
    9.2006  -34.6833   -6.9273 C   0  0  2  0  0  0  0  0  0  0  0  0
   10.0132  -34.5843   -8.1670 C   0  0  0  0  0  0  0  0  0  0  0  0
   10.1799  -35.6661   -8.8100 O   0  0  0  0  0  0  0  0  0  0  0  0
   10.5573  -33.3452   -8.5864 N   0  0  0  0  0  0  0  0  0  0  0  0
   11.3602  -33.1683   -9.7668 C   0  0  1  0  0  0  0  0  0  0  0  0
   12.5989  -34.0570   -9.7474 C   0  0  0  0  0  0  0  0  0  0  0  0
   13.4744  -33.7515   -8.5450 C   0  0  0  0  0  0  0  0  0  0  0  0
   14.7184  -34.6433   -8.5300 C   0  0  0  0  0  0  0  0  0  0  0  0
   15.5198  -34.2559   -7.2852 C   0  0  0  0  0  0  0  0  0  0  0  0
   14.6544  -34.5078   -6.1324 N   0  0  0  0  0  0  0  0  0  0  0  0
   10.6666  -33.3819  -11.0410 C   0  0  0  0  0  0  0  0  0  0  0  0
   11.3471  -33.1803  -12.1059 O   0  0  0  0  0  0  0  0  0  0  0  0
    9.3233  -33.7928  -11.1894 N   0  0  0  0  0  0  0  0  0  0  0  0
    8.6646  -34.0110  -12.4622 C   0  0  1  0  0  0  0  0  0  0  0  0
    8.4700  -35.5127  -12.6993 C   0  0  0  0  0  0  0  0  0  0  0  0
    9.7564  -36.2861  -12.7137 C   0  0  0  0  0  0  0  0  0  0  0  0
   10.7144  -35.8913  -13.7676 C   0  0  0  0  0  0  0  0  0  0  0  0
   11.9871  -36.5461  -13.7525 N   0  0  0  0  0  0  0  0  0  0  0  0
   10.5019  -35.0417  -14.6592 O   0  0  0  0  0  0  0  0  0  0  0  0
    7.2877  -33.4193  -12.5053 C   0  0  0  0  0  0  0  0  0  0  0  0
    6.6045  -33.6462  -13.5598 O   0  0  0  0  0  0  0  0  0  0  0  0
    6.7888  -32.6629  -11.4365 N   0  0  0  0  0  0  0  0  0  0  0  0
    5.4700  -32.0734  -11.3616 C   0  0  2  0  0  0  0  0  0  0  0  0
    5.4492  -30.6097  -11.5821 C   0  0  0  0  0  0  0  0  0  0  0  0
    6.4406  -29.9364  -11.9605 O   0  0  0  0  0  0  0  0  0  0  0  0
    4.2198  -29.9410  -11.3429 N   0  0  0  0  0  0  0  0  0  0  0  0
    4.0039  -28.5280  -11.5123 C   0  0  1  0  0  0  0  0  0  0  0  0
    2.6518  -28.1656  -11.9555 C   0  0  0  0  0  0  0  0  0  0  0  0
    4.4205  -27.8770  -10.2241 C   0  0  0  0  0  0  0  0  0  0  0  0
    4.9742  -28.6065   -9.3781 O   0  0  0  0  0  0  0  0  0  0  0  0
    4.1893  -26.4992  -10.0045 N   0  0  0  0  0  0  0  0  0  0  0  0
    4.6856  -25.9288   -8.6722 C   0  0  1  0  0  0  0  0  0  0  0  0
    5.2666  -24.6238   -8.9542 C   0  0  0  0  0  0  0  0  0  0  0  0
    5.9044  -23.9017   -7.8186 C   0  0  0  0  0  0  0  0  0  0  0  0
    7.0776  -24.6423   -7.2335 C   0  0  0  0  0  0  0  0  0  0  0  0
    7.8482  -23.9298   -6.2755 N   0  0  0  0  0  0  0  0  0  0  0  0
    7.5419  -23.4475   -5.0104 C   0  0  0  0  0  0  0  0  0  0  0  0
    8.5746  -22.7404   -4.2795 N   0  0  0  0  0  0  0  0  0  0  0  0
    6.4055  -23.5902   -4.4565 N   0  0  0  0  0  0  0  0  0  0  0  0
    3.4781  -25.9768   -7.8007 C   0  0  0  0  0  0  0  0  0  0  0  0
    2.3920  -26.2795   -8.4077 O   0  0  0  0  0  0  0  0  0  0  0  0
    3.4138  -25.7395   -6.4272 N   0  0  0  0  0  0  0  0  0  0  0  0
    2.1510  -25.8390   -5.7263 C   0  0  1  0  0  0  0  0  0  0  0  0
    2.2090  -27.0412   -4.7714 C   0  0  0  0  0  0  0  0  0  0  0  0
    2.4566  -28.3058   -5.5244 C   0  0  0  0  0  0  0  0  0  0  0  0
    2.5822  -29.5669   -4.7700 C   0  0  0  0  0  0  0  0  0  0  0  0
    1.4279  -30.0276   -3.9540 C   0  0  0  0  0  0  0  0  0  0  0  0
    1.0489  -29.1756   -2.8793 N   0  0  0  0  0  0  0  0  0  0  0  0
    1.7771  -24.6180   -5.0104 C   0  0  0  0  0  0  0  0  0  0  0  0
    0.6817  -24.6372   -4.3640 O   0  0  0  0  0  0  0  0  0  0  0  0
    2.5173  -23.4261   -4.9711 N   0  0  0  0  0  0  0  0  0  0  0  0
    2.0914  -22.2736   -4.2465 C   0  0  1  0  0  0  0  0  0  0  0  0
    3.0081  -21.7889   -3.1803 C   0  0  0  0  0  0  0  0  0  0  0  0
    2.3862  -20.6519   -2.6099 O   0  0  0  0  0  0  0  0  0  0  0  0
    1.7601  -21.1318   -5.1448 C   0  0  0  0  0  0  0  0  0  0  0  0
    2.1809  -21.1017   -6.3497 O   0  0  0  0  0  0  0  0  0  0  0  0
    0.9738  -20.0864   -4.6401 O   0  0  0  0  0  0  0  0  0  0  0  0
    4.7847  -32.5488  -10.1322 C   0  0  1  0  0  0  0  0  0  0  0  0
    4.8320  -34.0865  -10.1934 C   0  0  0  0  0  0  0  0  0  0  0  0
    5.4560  -32.2134   -8.9606 O   0  0  0  0  0  0  0  0  0  0  0  0
    7.7842  -35.0217   -7.2642 C   0  0  1  0  0  0  0  0  0  0  0  0
    7.6722  -36.2911   -8.0630 C   0  0  0  0  0  0  0  0  0  0  0  0
    7.0076  -35.1638   -6.1176 O   0  0  0  0  0  0  0  0  0  0  0  0
  2  1  1  1
  2  3  1  0
  2  4  1  0
  4  5  2  0
  4  6  1  0
  6  7  1  0
  7  8  1  1
  8  9  1  0
  9 10  1  0
 10 11  1  0
 11 12  1  0
 12 13  1  0
 12 14  2  0
  7 15  1  0
 15 16  2  0
 15 17  1  0
 18 17  1  6
 18 19  1  0
 19 20  2  0
 19 21  1  0
 21 22  1  0
 22 23  1  1
 23 24  1  0
 24 25  1  0
 25 26  1  0
 26 27  1  0
 22 28  1  0
 28 29  2  0
 28 30  1  0
 30 31  1  0
 31 32  1  1
 32 33  1  0
 33 34  1  0
 34 35  1  0
 34 36  2  0
 31 37  1  0
 37 38  2  0
 37 39  1  0
 40 39  1  1
 40 41  1  0
 41 42  2  0
 41 43  1  0
 43 44  1  0
 44 45  1  1
 44 46  1  0
 46 47  2  0
 46 48  1  0
 48 49  1  0
 49 50  1  6
 50 51  1  0
 51 52  1  0
 52 53  1  0
 53 54  1  0
 54 55  1  0
 54 56  2  0
 49 57  1  0
 57 58  2  0
 57 59  1  0
 59 60  1  0
 60 61  1  1
 61 62  1  0
 62 63  1  0
 63 64  1  0
 64 65  1  0
 60 66  1  0
 66 67  2  0
 66 68  1  0
 68 69  1  0
 69 70  1  1
 70 71  1  0
 69 72  1  0
 72 73  2  0
 72 74  1  0
 40 75  1  0
 75 76  1  6
 75 77  1  0
 18 78  1  0
 78 79  1  1
 78 80  1  0
M  CHG  6   3   1  14   1  27   1  56   1  65   1  74  -1
M  END
>  <shape_align_shape_tanimoto>  (3) 
0.27008687998213038

>  <shape_align_color_tanimoto>  (3) 
0.056292552125572187

>  <metric>  (3) 
combo

>  <metric_score>  (3) 
0.163

>  <template_pid>  (3) 
2PUY

>  <template_shape_score>  (3) 
0.270

>  <template_color_score>  (3) 
0.056

>  <template_combo_score>  (3) 
0.163

$$$$
