3OBU_shape_pose
     RDKit          3D

 68 71  0  0  0  0  0  0  0  0999 V2000
   -2.4804   14.7871   -9.0018 C   0  0  0  0  0  0  0  0  0  0  0  0
   -3.1647   13.4394   -9.1025 C   0  0  2  0  0  0  0  0  0  0  0  0
   -2.8894   12.6196   -7.9525 N   0  0  0  0  0  0  0  0  0  0  0  0
   -3.9595   11.9904   -7.3166 C   0  0  0  0  0  0  0  0  0  0  0  0
   -5.1241   12.1813   -7.8093 O   0  0  0  0  0  0  0  0  0  0  0  0
   -3.9181   11.1258   -6.1301 C   0  0  1  0  0  0  0  0  0  0  0  0
   -2.6150   10.9535   -5.5981 N   0  0  0  0  0  0  0  0  0  0  0  0
   -2.2286    9.7090   -5.0943 C   0  0  0  0  0  0  0  0  0  0  0  0
   -3.1858    8.8098   -5.2021 O   0  0  0  0  0  0  0  0  0  0  0  0
   -1.0351    9.2137   -4.4977 C   0  0  2  0  0  0  0  0  0  0  0  0
   -1.3495    8.3538   -3.2300 C   0  0  0  0  0  0  0  0  0  0  0  0
    0.0355    8.0085   -2.6899 C   0  0  0  0  0  0  0  0  0  0  0  0
    0.9560    8.7973   -3.5880 C   0  0  0  0  0  0  0  0  0  0  0  0
    0.0516    9.9425   -4.0096 N   0  0  0  0  0  0  0  0  0  0  0  0
    0.4925   11.2497   -3.8136 C   0  0  0  0  0  0  0  0  0  0  0  0
   -0.1060   12.3103   -4.1002 O   0  0  0  0  0  0  0  0  0  0  0  0
    1.8617   11.5297   -3.1818 C   0  0  2  0  0  0  0  0  0  0  0  0
    1.6522   11.4037   -1.7016 C   0  0  0  0  0  0  0  0  0  0  0  0
    2.9449   11.6165   -0.9420 C   0  0  0  0  0  0  0  0  0  0  0  0
    2.6190   11.4804    0.4955 C   0  0  0  0  0  0  0  0  0  0  0  0
    1.6303   12.1539    0.9415 O   0  0  0  0  0  0  0  0  0  0  0  0
    3.3737   10.6429    1.3170 O   0  0  0  0  0  0  0  0  0  0  0  0
    2.0242   12.9880   -3.3935 N   0  0  0  0  0  0  0  0  0  0  0  0
    3.0298   13.4200   -4.2703 C   0  0  0  0  0  0  0  0  0  0  0  0
    3.7680   12.5985   -4.8568 O   0  0  0  0  0  0  0  0  0  0  0  0
    3.2460   14.8612   -4.5261 C   0  0  2  0  0  0  0  0  0  0  0  0
    2.0467   15.4916   -5.1755 C   0  0  0  0  0  0  0  0  0  0  0  0
    2.6420   16.6759   -5.8868 C   0  0  0  0  0  0  0  0  0  0  0  0
    4.1501   16.5021   -5.7745 C   0  0  0  0  0  0  0  0  0  0  0  0
    4.2865   15.0846   -5.4984 N   0  0  0  0  0  0  0  0  0  0  0  0
   -4.8613   11.7743   -5.1190 C   0  0  1  0  0  0  0  0  0  0  0  0
   -4.3887   13.1158   -4.7061 C   0  0  0  0  0  0  0  0  0  0  0  0
   -6.0905   11.8917   -5.7488 O   0  0  0  0  0  0  0  0  0  0  0  0
   -2.8325   12.8011  -10.3651 C   0  0  0  0  0  0  0  0  0  0  0  0
   -3.1428   13.4791  -11.4211 O   0  0  0  0  0  0  0  0  0  0  0  0
   -2.2317   11.5709  -10.6232 N   0  0  0  0  0  0  0  0  0  0  0  0
   -2.0564   11.1156  -12.0251 C   0  0  0  0  0  0  0  0  0  0  0  0
   -1.9358    9.6326  -11.9739 C   0  0  0  0  0  0  0  0  0  0  0  0
   -2.2690    9.2997  -10.5341 C   0  0  0  0  0  0  0  0  0  0  0  0
   -1.6602   10.5269   -9.8437 C   0  0  1  0  0  0  0  0  0  0  0  0
   -0.1865   10.4090  -10.1023 C   0  0  0  0  0  0  0  0  0  0  0  0
    0.3802   11.0707  -11.0130 O   0  0  0  0  0  0  0  0  0  0  0  0
    0.6454    9.5560   -9.3427 N   0  0  0  0  0  0  0  0  0  0  0  0
    0.2324    8.7190   -8.2302 C   0  0  0  0  0  0  0  0  0  0  0  0
    1.4070    8.7081   -7.2815 C   0  0  0  0  0  0  0  0  0  0  0  0
    2.5939    9.1892   -8.0576 C   0  0  0  0  0  0  0  0  0  0  0  0
    2.0686    9.3020   -9.4627 C   0  0  1  0  0  0  0  0  0  0  0  0
    2.3559    7.9958  -10.1075 C   0  0  0  0  0  0  0  0  0  0  0  0
    3.5446    7.5389  -10.0490 O   0  0  0  0  0  0  0  0  0  0  0  0
    1.3252    7.2993  -10.7604 N   0  0  0  0  0  0  0  0  0  0  0  0
    1.5489    5.9901  -11.4025 C   0  0  1  0  0  0  0  0  0  0  0  0
    0.6657    4.9840  -10.7976 C   0  0  0  0  0  0  0  0  0  0  0  0
   -0.7872    5.2032  -10.8199 C   0  0  0  0  0  0  0  0  0  0  0  0
   -1.4344    5.3122  -12.1259 C   0  0  0  0  0  0  0  0  0  0  0  0
   -0.9495    5.2331  -13.2422 O   0  0  0  0  0  0  0  0  0  0  0  0
   -2.8337    5.5462  -12.0816 O   0  0  0  0  0  0  0  0  0  0  0  0
    1.6725    6.0890  -12.8363 C   0  0  0  0  0  0  0  0  0  0  0  0
    1.4595    7.2253  -13.3733 O   0  0  0  0  0  0  0  0  0  0  0  0
    2.0285    4.9647  -13.6316 N   0  0  0  0  0  0  0  0  0  0  0  0
    2.1505    5.1603  -15.0427 C   0  0  1  0  0  0  0  0  0  0  0  0
    3.4736    4.8774  -15.6280 C   0  0  0  0  0  0  0  0  0  0  0  0
    4.6512    5.6392  -15.1899 C   0  0  0  0  0  0  0  0  0  0  0  0
    5.0818    5.5506  -13.8013 C   0  0  0  0  0  0  0  0  0  0  0  0
    4.6283    4.8736  -12.8827 O   0  0  0  0  0  0  0  0  0  0  0  0
    6.1920    6.3622  -13.4535 O   0  0  0  0  0  0  0  0  0  0  0  0
    1.1516    4.3342  -15.8098 C   0  0  0  0  0  0  0  0  0  0  0  0
    0.9657    4.6870  -17.0048 O   0  0  0  0  0  0  0  0  0  0  0  0
    0.4877    3.2675  -15.2334 O   0  0  0  0  0  0  0  0  0  0  0  0
  2  1  1  1
  2  3  1  0
  3  4  1  0
  4  5  2  0
  4  6  1  0
  6  7  1  1
  7  8  1  0
  8  9  2  0
 10  8  1  1
 10 11  1  0
 11 12  1  0
 12 13  1  0
 13 14  1  0
 14 15  1  0
 15 16  2  0
 15 17  1  0
 17 18  1  1
 18 19  1  0
 19 20  1  0
 20 21  2  0
 20 22  1  0
 17 23  1  0
 23 24  1  0
 24 25  2  0
 26 24  1  6
 26 27  1  0
 27 28  1  0
 28 29  1  0
 29 30  1  0
  6 31  1  0
 31 32  1  6
 31 33  1  0
  2 34  1  0
 34 35  2  0
 34 36  1  0
 36 37  1  0
 37 38  1  0
 38 39  1  0
 39 40  1  0
 40 41  1  6
 41 42  2  0
 41 43  1  0
 43 44  1  0
 44 45  1  0
 45 46  1  0
 46 47  1  0
 47 48  1  6
 48 49  2  0
 48 50  1  0
 50 51  1  0
 51 52  1  6
 52 53  1  0
 53 54  1  0
 54 55  2  0
 54 56  1  0
 51 57  1  0
 57 58  2  0
 57 59  1  0
 59 60  1  0
 60 61  1  6
 61 62  1  0
 62 63  1  0
 63 64  2  0
 63 65  1  0
 60 66  1  0
 66 67  2  0
 66 68  1  0
 14 10  1  0
 30 26  1  0
 40 36  1  0
 47 43  1  0
M  CHG  5  22  -1  30   1  56  -1  65  -1  68  -1
M  END
>  <shape_align_shape_tanimoto>  (1) 
0.40777848089666963

>  <shape_align_color_tanimoto>  (1) 
0.047930699860309997

>  <metric>  (1) 
shape

>  <metric_score>  (1) 
0.408

>  <template_pid>  (1) 
3OBU

>  <template_shape_score>  (1) 
0.408

>  <template_color_score>  (1) 
0.048

>  <template_combo_score>  (1) 
0.228

$$$$
3OBU_color_pose
     RDKit          3D

 68 71  0  0  0  0  0  0  0  0999 V2000
    2.6921   10.7664  -11.0224 C   0  0  0  0  0  0  0  0  0  0  0  0
    1.5879    9.8025  -11.4759 C   0  0  2  0  0  0  0  0  0  0  0  0
    2.2013    9.0804  -12.5884 N   0  0  0  0  0  0  0  0  0  0  0  0
    2.6484    7.7694  -12.3297 C   0  0  0  0  0  0  0  0  0  0  0  0
    2.5134    7.3272  -11.1505 O   0  0  0  0  0  0  0  0  0  0  0  0
    3.2604    6.8584  -13.3094 C   0  0  1  0  0  0  0  0  0  0  0  0
    3.7943    5.6772  -12.5903 N   0  0  0  0  0  0  0  0  0  0  0  0
    4.7242    4.7991  -13.1981 C   0  0  0  0  0  0  0  0  0  0  0  0
    5.1169    5.0036  -14.3946 O   0  0  0  0  0  0  0  0  0  0  0  0
    5.2771    3.6091  -12.4792 C   0  0  2  0  0  0  0  0  0  0  0  0
    4.2523    2.4546  -12.6352 C   0  0  0  0  0  0  0  0  0  0  0  0
    4.2676    1.7636  -11.3096 C   0  0  0  0  0  0  0  0  0  0  0  0
    4.3423    2.9390  -10.3680 C   0  0  0  0  0  0  0  0  0  0  0  0
    5.2598    3.8315  -11.0527 N   0  0  0  0  0  0  0  0  0  0  0  0
    5.9984    4.8188  -10.2967 C   0  0  0  0  0  0  0  0  0  0  0  0
    5.7331    4.8473   -9.0655 O   0  0  0  0  0  0  0  0  0  0  0  0
    6.9854    5.7361  -10.8755 C   0  0  2  0  0  0  0  0  0  0  0  0
    8.2472    4.9540  -11.2528 C   0  0  0  0  0  0  0  0  0  0  0  0
    9.2971    5.8351  -11.8573 C   0  0  0  0  0  0  0  0  0  0  0  0
   10.4584    4.9658  -12.1755 C   0  0  0  0  0  0  0  0  0  0  0  0
   10.4074    3.7540  -11.9230 O   0  0  0  0  0  0  0  0  0  0  0  0
   11.5804    5.5867  -12.7628 O   0  0  0  0  0  0  0  0  0  0  0  0
    7.3981    6.7551   -9.8762 N   0  0  0  0  0  0  0  0  0  0  0  0
    7.4812    8.1150  -10.2826 C   0  0  0  0  0  0  0  0  0  0  0  0
    7.1902    8.3869  -11.4874 O   0  0  0  0  0  0  0  0  0  0  0  0
    7.8809    9.2260   -9.4146 C   0  0  2  0  0  0  0  0  0  0  0  0
    6.9605    9.5252   -8.2797 C   0  0  0  0  0  0  0  0  0  0  0  0
    7.5063   10.8632   -7.7870 C   0  0  0  0  0  0  0  0  0  0  0  0
    8.1152   11.4604   -9.0357 C   0  0  0  0  0  0  0  0  0  0  0  0
    7.8802   10.5058  -10.1123 N   0  0  0  0  0  0  0  0  0  0  0  0
    2.0551    6.3088  -14.1259 C   0  0  1  0  0  0  0  0  0  0  0  0
    1.3757    7.3874  -14.8885 C   0  0  0  0  0  0  0  0  0  0  0  0
    2.4733    5.3244  -15.0085 O   0  0  0  0  0  0  0  0  0  0  0  0
    0.3863   10.5258  -11.8867 C   0  0  0  0  0  0  0  0  0  0  0  0
    0.1208   10.7586  -13.1058 O   0  0  0  0  0  0  0  0  0  0  0  0
   -0.5660   11.0085  -10.9232 N   0  0  0  0  0  0  0  0  0  0  0  0
   -1.7487   11.7919  -11.2097 C   0  0  0  0  0  0  0  0  0  0  0  0
   -1.9044   12.5678   -9.9386 C   0  0  0  0  0  0  0  0  0  0  0  0
   -1.2748   11.7799   -8.8438 C   0  0  0  0  0  0  0  0  0  0  0  0
   -0.4993   10.6964   -9.4887 C   0  0  1  0  0  0  0  0  0  0  0  0
   -1.1237    9.4046   -9.2195 C   0  0  0  0  0  0  0  0  0  0  0  0
   -1.6026    8.7736  -10.2291 O   0  0  0  0  0  0  0  0  0  0  0  0
   -1.2762    8.7423   -7.9752 N   0  0  0  0  0  0  0  0  0  0  0  0
   -1.9796    7.4308   -7.9654 C   0  0  0  0  0  0  0  0  0  0  0  0
   -1.3877    6.7906   -6.7428 C   0  0  0  0  0  0  0  0  0  0  0  0
   -1.4092    7.9905   -5.7860 C   0  0  0  0  0  0  0  0  0  0  0  0
   -0.8709    9.1273   -6.6801 C   0  0  1  0  0  0  0  0  0  0  0  0
    0.5917    9.1455   -6.4109 C   0  0  0  0  0  0  0  0  0  0  0  0
    1.4723    8.9582   -7.2871 O   0  0  0  0  0  0  0  0  0  0  0  0
    0.9828    9.3925   -5.0631 N   0  0  0  0  0  0  0  0  0  0  0  0
    2.3010    9.4567   -4.5650 C   0  0  1  0  0  0  0  0  0  0  0  0
    2.5309   10.7573   -3.8623 C   0  0  0  0  0  0  0  0  0  0  0  0
    1.6350   11.0056   -2.6955 C   0  0  0  0  0  0  0  0  0  0  0  0
    2.0178   12.3415   -2.1429 C   0  0  0  0  0  0  0  0  0  0  0  0
    2.9527   12.9513   -2.7178 O   0  0  0  0  0  0  0  0  0  0  0  0
    1.4144   12.9259   -1.0627 O   0  0  0  0  0  0  0  0  0  0  0  0
    2.7085    8.2926   -3.7510 C   0  0  0  0  0  0  0  0  0  0  0  0
    1.8976    7.3003   -3.7600 O   0  0  0  0  0  0  0  0  0  0  0  0
    3.9035    8.2216   -2.9888 N   0  0  0  0  0  0  0  0  0  0  0  0
    4.2043    7.0582   -2.2630 C   0  0  1  0  0  0  0  0  0  0  0  0
    5.5288    6.4656   -2.5734 C   0  0  0  0  0  0  0  0  0  0  0  0
    5.8385    5.9834   -3.9270 C   0  0  0  0  0  0  0  0  0  0  0  0
    5.8403    6.9138   -5.0474 C   0  0  0  0  0  0  0  0  0  0  0  0
    5.6516    8.1421   -5.0509 O   0  0  0  0  0  0  0  0  0  0  0  0
    6.0931    6.3535   -6.3238 O   0  0  0  0  0  0  0  0  0  0  0  0
    4.0908    7.2327   -0.7801 C   0  0  0  0  0  0  0  0  0  0  0  0
    2.8984    7.3270   -0.3163 O   0  0  0  0  0  0  0  0  0  0  0  0
    5.1835    7.2936    0.0669 O   0  0  0  0  0  0  0  0  0  0  0  0
  2  1  1  6
  2  3  1  0
  3  4  1  0
  4  5  2  0
  4  6  1  0
  6  7  1  1
  7  8  1  0
  8  9  2  0
 10  8  1  6
 10 11  1  0
 11 12  1  0
 12 13  1  0
 13 14  1  0
 14 15  1  0
 15 16  2  0
 15 17  1  0
 17 18  1  1
 18 19  1  0
 19 20  1  0
 20 21  2  0
 20 22  1  0
 17 23  1  0
 23 24  1  0
 24 25  2  0
 26 24  1  6
 26 27  1  0
 27 28  1  0
 28 29  1  0
 29 30  1  0
  6 31  1  0
 31 32  1  6
 31 33  1  0
  2 34  1  0
 34 35  2  0
 34 36  1  0
 36 37  1  0
 37 38  1  0
 38 39  1  0
 39 40  1  0
 40 41  1  6
 41 42  2  0
 41 43  1  0
 43 44  1  0
 44 45  1  0
 45 46  1  0
 46 47  1  0
 47 48  1  6
 48 49  2  0
 48 50  1  0
 50 51  1  0
 51 52  1  1
 52 53  1  0
 53 54  1  0
 54 55  2  0
 54 56  1  0
 51 57  1  0
 57 58  2  0
 57 59  1  0
 59 60  1  0
 60 61  1  1
 61 62  1  0
 62 63  1  0
 63 64  2  0
 63 65  1  0
 60 66  1  0
 66 67  2  0
 66 68  1  0
 14 10  1  0
 30 26  1  0
 40 36  1  0
 47 43  1  0
M  CHG  5  22  -1  30   1  56  -1  65  -1  68  -1
M  END
>  <shape_align_shape_tanimoto>  (2) 
0.30514882910274194

>  <shape_align_color_tanimoto>  (2) 
0.06185491343009087

>  <metric>  (2) 
color

>  <metric_score>  (2) 
0.062

>  <template_pid>  (2) 
3OBU

>  <template_shape_score>  (2) 
0.305

>  <template_color_score>  (2) 
0.062

>  <template_combo_score>  (2) 
0.184

$$$$
3OBU_combo_pose
     RDKit          3D

 68 71  0  0  0  0  0  0  0  0999 V2000
   -2.4804   14.7871   -9.0018 C   0  0  0  0  0  0  0  0  0  0  0  0
   -3.1647   13.4394   -9.1025 C   0  0  2  0  0  0  0  0  0  0  0  0
   -2.8894   12.6196   -7.9525 N   0  0  0  0  0  0  0  0  0  0  0  0
   -3.9595   11.9904   -7.3166 C   0  0  0  0  0  0  0  0  0  0  0  0
   -5.1241   12.1813   -7.8093 O   0  0  0  0  0  0  0  0  0  0  0  0
   -3.9181   11.1258   -6.1301 C   0  0  1  0  0  0  0  0  0  0  0  0
   -2.6150   10.9535   -5.5981 N   0  0  0  0  0  0  0  0  0  0  0  0
   -2.2286    9.7090   -5.0943 C   0  0  0  0  0  0  0  0  0  0  0  0
   -3.1858    8.8098   -5.2021 O   0  0  0  0  0  0  0  0  0  0  0  0
   -1.0351    9.2137   -4.4977 C   0  0  2  0  0  0  0  0  0  0  0  0
   -1.3495    8.3538   -3.2300 C   0  0  0  0  0  0  0  0  0  0  0  0
    0.0355    8.0085   -2.6899 C   0  0  0  0  0  0  0  0  0  0  0  0
    0.9560    8.7973   -3.5880 C   0  0  0  0  0  0  0  0  0  0  0  0
    0.0516    9.9425   -4.0096 N   0  0  0  0  0  0  0  0  0  0  0  0
    0.4925   11.2497   -3.8136 C   0  0  0  0  0  0  0  0  0  0  0  0
   -0.1060   12.3103   -4.1002 O   0  0  0  0  0  0  0  0  0  0  0  0
    1.8617   11.5297   -3.1818 C   0  0  2  0  0  0  0  0  0  0  0  0
    1.6522   11.4037   -1.7016 C   0  0  0  0  0  0  0  0  0  0  0  0
    2.9449   11.6165   -0.9420 C   0  0  0  0  0  0  0  0  0  0  0  0
    2.6190   11.4804    0.4955 C   0  0  0  0  0  0  0  0  0  0  0  0
    1.6303   12.1539    0.9415 O   0  0  0  0  0  0  0  0  0  0  0  0
    3.3737   10.6429    1.3170 O   0  0  0  0  0  0  0  0  0  0  0  0
    2.0242   12.9880   -3.3935 N   0  0  0  0  0  0  0  0  0  0  0  0
    3.0298   13.4200   -4.2703 C   0  0  0  0  0  0  0  0  0  0  0  0
    3.7680   12.5985   -4.8568 O   0  0  0  0  0  0  0  0  0  0  0  0
    3.2460   14.8612   -4.5261 C   0  0  2  0  0  0  0  0  0  0  0  0
    2.0467   15.4916   -5.1755 C   0  0  0  0  0  0  0  0  0  0  0  0
    2.6420   16.6759   -5.8868 C   0  0  0  0  0  0  0  0  0  0  0  0
    4.1501   16.5021   -5.7745 C   0  0  0  0  0  0  0  0  0  0  0  0
    4.2865   15.0846   -5.4984 N   0  0  0  0  0  0  0  0  0  0  0  0
   -4.8613   11.7743   -5.1190 C   0  0  1  0  0  0  0  0  0  0  0  0
   -4.3887   13.1158   -4.7061 C   0  0  0  0  0  0  0  0  0  0  0  0
   -6.0905   11.8917   -5.7488 O   0  0  0  0  0  0  0  0  0  0  0  0
   -2.8325   12.8011  -10.3651 C   0  0  0  0  0  0  0  0  0  0  0  0
   -3.1428   13.4791  -11.4211 O   0  0  0  0  0  0  0  0  0  0  0  0
   -2.2317   11.5709  -10.6232 N   0  0  0  0  0  0  0  0  0  0  0  0
   -2.0564   11.1156  -12.0251 C   0  0  0  0  0  0  0  0  0  0  0  0
   -1.9358    9.6326  -11.9739 C   0  0  0  0  0  0  0  0  0  0  0  0
   -2.2690    9.2997  -10.5341 C   0  0  0  0  0  0  0  0  0  0  0  0
   -1.6602   10.5269   -9.8437 C   0  0  1  0  0  0  0  0  0  0  0  0
   -0.1865   10.4090  -10.1023 C   0  0  0  0  0  0  0  0  0  0  0  0
    0.3802   11.0707  -11.0130 O   0  0  0  0  0  0  0  0  0  0  0  0
    0.6454    9.5560   -9.3427 N   0  0  0  0  0  0  0  0  0  0  0  0
    0.2324    8.7190   -8.2302 C   0  0  0  0  0  0  0  0  0  0  0  0
    1.4070    8.7081   -7.2815 C   0  0  0  0  0  0  0  0  0  0  0  0
    2.5939    9.1892   -8.0576 C   0  0  0  0  0  0  0  0  0  0  0  0
    2.0686    9.3020   -9.4627 C   0  0  1  0  0  0  0  0  0  0  0  0
    2.3559    7.9958  -10.1075 C   0  0  0  0  0  0  0  0  0  0  0  0
    3.5446    7.5389  -10.0490 O   0  0  0  0  0  0  0  0  0  0  0  0
    1.3252    7.2993  -10.7604 N   0  0  0  0  0  0  0  0  0  0  0  0
    1.5489    5.9901  -11.4025 C   0  0  1  0  0  0  0  0  0  0  0  0
    0.6657    4.9840  -10.7976 C   0  0  0  0  0  0  0  0  0  0  0  0
   -0.7872    5.2032  -10.8199 C   0  0  0  0  0  0  0  0  0  0  0  0
   -1.4344    5.3122  -12.1259 C   0  0  0  0  0  0  0  0  0  0  0  0
   -0.9495    5.2331  -13.2422 O   0  0  0  0  0  0  0  0  0  0  0  0
   -2.8337    5.5462  -12.0816 O   0  0  0  0  0  0  0  0  0  0  0  0
    1.6725    6.0890  -12.8363 C   0  0  0  0  0  0  0  0  0  0  0  0
    1.4595    7.2253  -13.3733 O   0  0  0  0  0  0  0  0  0  0  0  0
    2.0285    4.9647  -13.6316 N   0  0  0  0  0  0  0  0  0  0  0  0
    2.1505    5.1603  -15.0427 C   0  0  1  0  0  0  0  0  0  0  0  0
    3.4736    4.8774  -15.6280 C   0  0  0  0  0  0  0  0  0  0  0  0
    4.6512    5.6392  -15.1899 C   0  0  0  0  0  0  0  0  0  0  0  0
    5.0818    5.5506  -13.8013 C   0  0  0  0  0  0  0  0  0  0  0  0
    4.6283    4.8736  -12.8827 O   0  0  0  0  0  0  0  0  0  0  0  0
    6.1920    6.3622  -13.4535 O   0  0  0  0  0  0  0  0  0  0  0  0
    1.1516    4.3342  -15.8098 C   0  0  0  0  0  0  0  0  0  0  0  0
    0.9657    4.6870  -17.0048 O   0  0  0  0  0  0  0  0  0  0  0  0
    0.4877    3.2675  -15.2334 O   0  0  0  0  0  0  0  0  0  0  0  0
  2  1  1  1
  2  3  1  0
  3  4  1  0
  4  5  2  0
  4  6  1  0
  6  7  1  1
  7  8  1  0
  8  9  2  0
 10  8  1  1
 10 11  1  0
 11 12  1  0
 12 13  1  0
 13 14  1  0
 14 15  1  0
 15 16  2  0
 15 17  1  0
 17 18  1  1
 18 19  1  0
 19 20  1  0
 20 21  2  0
 20 22  1  0
 17 23  1  0
 23 24  1  0
 24 25  2  0
 26 24  1  6
 26 27  1  0
 27 28  1  0
 28 29  1  0
 29 30  1  0
  6 31  1  0
 31 32  1  6
 31 33  1  0
  2 34  1  0
 34 35  2  0
 34 36  1  0
 36 37  1  0
 37 38  1  0
 38 39  1  0
 39 40  1  0
 40 41  1  6
 41 42  2  0
 41 43  1  0
 43 44  1  0
 44 45  1  0
 45 46  1  0
 46 47  1  0
 47 48  1  6
 48 49  2  0
 48 50  1  0
 50 51  1  0
 51 52  1  6
 52 53  1  0
 53 54  1  0
 54 55  2  0
 54 56  1  0
 51 57  1  0
 57 58  2  0
 57 59  1  0
 59 60  1  0
 60 61  1  6
 61 62  1  0
 62 63  1  0
 63 64  2  0
 63 65  1  0
 60 66  1  0
 66 67  2  0
 66 68  1  0
 14 10  1  0
 30 26  1  0
 40 36  1  0
 47 43  1  0
M  CHG  5  22  -1  30   1  56  -1  65  -1  68  -1
M  END
>  <shape_align_shape_tanimoto>  (3) 
0.40777848089666963

>  <shape_align_color_tanimoto>  (3) 
0.047930699860309997

>  <metric>  (3) 
combo

>  <metric_score>  (3) 
0.228

>  <template_pid>  (3) 
3OBU

>  <template_shape_score>  (3) 
0.408

>  <template_color_score>  (3) 
0.048

>  <template_combo_score>  (3) 
0.228

$$$$
