1HN2_shape_pose
     RDKit          3D

 15 17  0  0  0  0  0  0  0  0999 V2000
   -1.0071   -0.4694  -25.6718 N   0  0  0  0  0  0  0  0  0  0  0  0
   -1.6098   -0.1622  -24.4165 C   0  0  0  0  0  0  0  0  0  0  0  0
   -2.9645    0.1831  -24.3436 C   0  0  0  0  0  0  0  0  0  0  0  0
   -3.5645    0.4839  -23.1340 C   0  0  0  0  0  0  0  0  0  0  0  0
   -2.8259    0.4471  -21.9686 C   0  0  0  0  0  0  0  0  0  0  0  0
   -1.4889    0.1104  -22.0083 C   0  0  0  0  0  0  0  0  0  0  0  0
   -0.7890    0.0861  -20.8192 C   0  0  0  0  0  0  0  0  0  0  0  0
    0.5540   -0.2541  -20.8755 C   0  0  0  0  0  0  0  0  0  0  0  0
    1.2428   -0.2750  -19.6810 C   0  0  0  0  0  0  0  0  0  0  0  0
    2.5951   -0.6139  -19.7082 C   0  0  0  0  0  0  0  0  0  0  0  0
    3.1848   -0.9124  -20.9196 C   0  0  0  0  0  0  0  0  0  0  0  0
    2.4843   -0.8879  -22.1080 C   0  0  0  0  0  0  0  0  0  0  0  0
    1.1305   -0.5500  -22.0917 C   0  0  0  0  0  0  0  0  0  0  0  0
    0.4234   -0.5245  -23.2852 C   0  0  0  0  0  0  0  0  0  0  0  0
   -0.9134   -0.1853  -23.2254 C   0  0  0  0  0  0  0  0  0  0  0  0
  1  2  1  0
  2  3  2  0
  3  4  1  0
  4  5  2  0
  5  6  1  0
  6  7  2  0
  7  8  1  0
  8  9  2  0
  9 10  1  0
 10 11  2  0
 11 12  1  0
 12 13  2  0
 13 14  1  0
 14 15  2  0
 15  2  1  0
 15  6  1  0
 13  8  1  0
M  END
>  <shape_align_shape_tanimoto>  (1) 
0.79422156118100873

>  <shape_align_color_tanimoto>  (1) 
2.7281818539621664e-05

>  <metric>  (1) 
shape

>  <metric_score>  (1) 
0.794

>  <template_pid>  (1) 
1HN2

>  <template_shape_score>  (1) 
0.794

>  <template_color_score>  (1) 
0.000

>  <template_combo_score>  (1) 
0.397

$$$$
1HN2_color_pose
     RDKit          3D

 15 17  0  0  0  0  0  0  0  0999 V2000
    3.2367   -1.1310  -22.5956 N   0  0  0  0  0  0  0  0  0  0  0  0
    2.3414   -0.7771  -21.5229 C   0  0  0  0  0  0  0  0  0  0  0  0
    2.7900   -0.7262  -20.2185 C   0  0  0  0  0  0  0  0  0  0  0  0
    1.8747   -0.3800  -19.2479 C   0  0  0  0  0  0  0  0  0  0  0  0
    0.5536   -0.0876  -19.5205 C   0  0  0  0  0  0  0  0  0  0  0  0
    0.1052   -0.1385  -20.8252 C   0  0  0  0  0  0  0  0  0  0  0  0
   -1.2000    0.1406  -21.1732 C   0  0  0  0  0  0  0  0  0  0  0  0
   -1.6503    0.0888  -22.4881 C   0  0  0  0  0  0  0  0  0  0  0  0
   -2.9660    0.3765  -22.7876 C   0  0  0  0  0  0  0  0  0  0  0  0
   -3.3938    0.3180  -24.1121 C   0  0  0  0  0  0  0  0  0  0  0  0
   -2.4600   -0.0308  -25.0662 C   0  0  0  0  0  0  0  0  0  0  0  0
   -1.1434   -0.3187  -24.7670 C   0  0  0  0  0  0  0  0  0  0  0  0
   -0.7155   -0.2602  -23.4419 C   0  0  0  0  0  0  0  0  0  0  0  0
    0.6007   -0.5456  -23.1230 C   0  0  0  0  0  0  0  0  0  0  0  0
    1.0113   -0.4838  -21.8065 C   0  0  0  0  0  0  0  0  0  0  0  0
  1  2  1  0
  2  3  2  0
  3  4  1  0
  4  5  2  0
  5  6  1  0
  6  7  2  0
  7  8  1  0
  8  9  2  0
  9 10  1  0
 10 11  2  0
 11 12  1  0
 12 13  2  0
 13 14  1  0
 14 15  2  0
 15  2  1  0
 15  6  1  0
 13  8  1  0
M  END
>  <shape_align_shape_tanimoto>  (2) 
0.78407290837216692

>  <shape_align_color_tanimoto>  (2) 
6.9374725351741931e-05

>  <metric>  (2) 
color

>  <metric_score>  (2) 
0.000

>  <template_pid>  (2) 
1HN2

>  <template_shape_score>  (2) 
0.784

>  <template_color_score>  (2) 
0.000

>  <template_combo_score>  (2) 
0.392

$$$$
1HN2_combo_pose
     RDKit          3D

 15 17  0  0  0  0  0  0  0  0999 V2000
   -1.0071   -0.4694  -25.6718 N   0  0  0  0  0  0  0  0  0  0  0  0
   -1.6098   -0.1622  -24.4165 C   0  0  0  0  0  0  0  0  0  0  0  0
   -2.9645    0.1831  -24.3436 C   0  0  0  0  0  0  0  0  0  0  0  0
   -3.5645    0.4839  -23.1340 C   0  0  0  0  0  0  0  0  0  0  0  0
   -2.8259    0.4471  -21.9686 C   0  0  0  0  0  0  0  0  0  0  0  0
   -1.4889    0.1104  -22.0083 C   0  0  0  0  0  0  0  0  0  0  0  0
   -0.7890    0.0861  -20.8192 C   0  0  0  0  0  0  0  0  0  0  0  0
    0.5540   -0.2541  -20.8755 C   0  0  0  0  0  0  0  0  0  0  0  0
    1.2428   -0.2750  -19.6810 C   0  0  0  0  0  0  0  0  0  0  0  0
    2.5951   -0.6139  -19.7082 C   0  0  0  0  0  0  0  0  0  0  0  0
    3.1848   -0.9124  -20.9196 C   0  0  0  0  0  0  0  0  0  0  0  0
    2.4843   -0.8879  -22.1080 C   0  0  0  0  0  0  0  0  0  0  0  0
    1.1305   -0.5500  -22.0917 C   0  0  0  0  0  0  0  0  0  0  0  0
    0.4234   -0.5245  -23.2852 C   0  0  0  0  0  0  0  0  0  0  0  0
   -0.9134   -0.1853  -23.2254 C   0  0  0  0  0  0  0  0  0  0  0  0
  1  2  1  0
  2  3  2  0
  3  4  1  0
  4  5  2  0
  5  6  1  0
  6  7  2  0
  7  8  1  0
  8  9  2  0
  9 10  1  0
 10 11  2  0
 11 12  1  0
 12 13  2  0
 13 14  1  0
 14 15  2  0
 15  2  1  0
 15  6  1  0
 13  8  1  0
M  END
>  <shape_align_shape_tanimoto>  (3) 
0.79422156118100873

>  <shape_align_color_tanimoto>  (3) 
2.7281818539621664e-05

>  <metric>  (3) 
combo

>  <metric_score>  (3) 
0.397

>  <template_pid>  (3) 
1HN2

>  <template_shape_score>  (3) 
0.794

>  <template_color_score>  (3) 
0.000

>  <template_combo_score>  (3) 
0.397

$$$$
