3Q4J_shape_pose
     RDKit          3D

 48 48  0  0  0  0  0  0  0  0999 V2000
   -1.7118   31.3367   55.7078 C   0  0  0  0  0  0  0  0  0  0  0  0
   -2.9283   30.5962   56.0277 C   0  0  0  0  0  0  0  0  0  0  0  0
   -2.9986   29.7280   56.9323 O   0  0  0  0  0  0  0  0  0  0  0  0
   -4.1111   30.8452   55.2969 N   0  0  0  0  0  0  0  0  0  0  0  0
   -5.3386   30.1167   55.5927 C   0  0  1  0  0  0  0  0  0  0  0  0
   -6.3096   31.1122   56.1506 C   0  0  0  0  0  0  0  0  0  0  0  0
   -6.5714   32.1846   55.1626 C   0  0  0  0  0  0  0  0  0  0  0  0
   -7.5373   33.1343   55.7539 C   0  0  0  0  0  0  0  0  0  0  0  0
   -7.8945   34.2640   54.9790 N   0  0  0  0  0  0  0  0  0  0  0  0
   -8.0412   32.9882   56.8801 O   0  0  0  0  0  0  0  0  0  0  0  0
   -5.8071   29.5463   54.3138 C   0  0  0  0  0  0  0  0  0  0  0  0
   -5.1023   29.8533   53.3051 O   0  0  0  0  0  0  0  0  0  0  0  0
   -6.9452   28.7233   54.2043 N   0  0  0  0  0  0  0  0  0  0  0  0
   -7.2994   28.2372   52.9176 C   0  0  1  0  0  0  0  0  0  0  0  0
   -7.1025   26.7844   52.7497 C   0  0  0  0  0  0  0  0  0  0  0  0
   -7.8365   25.8840   53.6464 C   0  0  0  0  0  0  0  0  0  0  0  0
   -9.3046   25.9485   53.6216 C   0  0  0  0  0  0  0  0  0  0  0  0
   -7.3243   25.9184   55.0619 C   0  0  0  0  0  0  0  0  0  0  0  0
   -8.6638   28.5890   52.4909 C   0  0  0  0  0  0  0  0  0  0  0  0
   -8.9624   28.2632   51.3069 O   0  0  0  0  0  0  0  0  0  0  0  0
   -9.5867   29.2469   53.3386 N   0  0  0  0  0  0  0  0  0  0  0  0
  -10.9061   29.5521   52.7916 C   0  0  1  0  0  0  0  0  0  0  0  0
  -11.9095   28.5488   53.3053 C   0  0  0  0  0  0  0  0  0  0  0  0
  -13.2602   28.7544   52.8173 C   0  0  0  0  0  0  0  0  0  0  0  0
  -13.4691   28.5169   51.5894 O   0  0  0  0  0  0  0  0  0  0  0  0
  -14.2672   29.1805   53.6216 O   0  0  0  0  0  0  0  0  0  0  0  0
  -11.2774   30.9134   53.1333 C   0  0  0  0  0  0  0  0  0  0  0  0
  -10.4870   31.5317   53.9132 O   0  0  0  0  0  0  0  0  0  0  0  0
  -12.3930   31.6074   52.7035 N   0  0  0  0  0  0  0  0  0  0  0  0
  -12.6160   32.9906   53.1650 C   0  0  1  0  0  0  0  0  0  0  0  0
  -12.1693   33.7954   51.9539 C   0  0  0  0  0  0  0  0  0  0  0  0
  -12.2656   35.2585   52.1145 C   0  0  0  0  0  0  0  0  0  0  0  0
  -11.4177   35.6989   53.2507 C   0  0  0  0  0  0  0  0  0  0  0  0
  -11.6252   35.8516   50.8551 C   0  0  0  0  0  0  0  0  0  0  0  0
  -14.0083   33.1780   53.5036 C   0  0  0  0  0  0  0  0  0  0  0  0
  -14.8012   32.2243   53.2476 O   0  0  0  0  0  0  0  0  0  0  0  0
  -14.5855   34.3087   54.0905 N   0  0  0  0  0  0  0  0  0  0  0  0
  -16.0251   34.3584   54.3640 C   0  0  1  0  0  0  0  0  0  0  0  0
  -16.3351   34.5941   55.7789 C   0  0  0  0  0  0  0  0  0  0  0  0
  -17.7246   34.6533   56.1611 C   0  0  0  0  0  0  0  0  0  0  0  0
  -18.4785   35.7672   56.3472 C   0  0  0  0  0  0  0  0  0  0  0  0
  -19.8178   35.7048   56.6762 C   0  0  0  0  0  0  0  0  0  0  0  0
  -20.4629   34.5160   56.8343 C   0  0  0  0  0  0  0  0  0  0  0  0
  -19.7100   33.3813   56.6495 C   0  0  0  0  0  0  0  0  0  0  0  0
  -18.3853   33.4414   56.3239 C   0  0  0  0  0  0  0  0  0  0  0  0
  -16.5736   35.3905   53.4977 C   0  0  0  0  0  0  0  0  0  0  0  0
  -16.6401   35.1201   52.2715 O   0  0  0  0  0  0  0  0  0  0  0  0
  -17.0210   36.6197   53.8724 O   0  0  0  0  0  0  0  0  0  0  0  0
  1  2  1  0
  2  3  2  0
  2  4  1  0
  4  5  1  0
  5  6  1  6
  6  7  1  0
  7  8  1  0
  8  9  1  0
  8 10  2  0
  5 11  1  0
 11 12  2  0
 11 13  1  0
 13 14  1  0
 14 15  1  1
 15 16  1  0
 16 17  1  0
 16 18  1  0
 14 19  1  0
 19 20  2  0
 19 21  1  0
 21 22  1  0
 22 23  1  1
 23 24  1  0
 24 25  2  0
 24 26  1  0
 22 27  1  0
 27 28  2  0
 27 29  1  0
 29 30  1  0
 30 31  1  6
 31 32  1  0
 32 33  1  0
 32 34  1  0
 30 35  1  0
 35 36  2  0
 35 37  1  0
 37 38  1  0
 38 39  1  1
 39 40  1  0
 40 41  2  0
 41 42  1  0
 42 43  2  0
 43 44  1  0
 44 45  2  0
 38 46  1  0
 46 47  2  0
 46 48  1  0
 45 40  1  0
M  CHG  2  26  -1  48  -1
M  END
>  <shape_align_shape_tanimoto>  (1) 
0.50503174715095767

>  <shape_align_color_tanimoto>  (1) 
0.019886379472313021

>  <metric>  (1) 
shape

>  <metric_score>  (1) 
0.505

>  <template_pid>  (1) 
3Q4J

>  <template_shape_score>  (1) 
0.505

>  <template_color_score>  (1) 
0.020

>  <template_combo_score>  (1) 
0.262

$$$$
3Q4J_color_pose
     RDKit          3D

 48 48  0  0  0  0  0  0  0  0999 V2000
   -6.3431   25.5878   52.4612 C   0  0  0  0  0  0  0  0  0  0  0  0
   -6.9638   26.7863   53.1208 C   0  0  0  0  0  0  0  0  0  0  0  0
   -7.7733   26.5456   54.0814 O   0  0  0  0  0  0  0  0  0  0  0  0
   -6.6692   28.1230   52.7028 N   0  0  0  0  0  0  0  0  0  0  0  0
   -7.3048   29.2035   53.3890 C   0  0  1  0  0  0  0  0  0  0  0  0
   -6.3130   30.0511   54.1361 C   0  0  0  0  0  0  0  0  0  0  0  0
   -5.6075   29.1688   55.1532 C   0  0  0  0  0  0  0  0  0  0  0  0
   -4.6157   29.9179   55.9458 C   0  0  0  0  0  0  0  0  0  0  0  0
   -3.8378   29.3061   56.9882 N   0  0  0  0  0  0  0  0  0  0  0  0
   -4.4238   31.1627   55.7132 O   0  0  0  0  0  0  0  0  0  0  0  0
   -8.1728   29.9840   52.4703 C   0  0  0  0  0  0  0  0  0  0  0  0
   -8.2722   29.6890   51.2551 O   0  0  0  0  0  0  0  0  0  0  0  0
   -8.8903   31.0954   53.0608 N   0  0  0  0  0  0  0  0  0  0  0  0
   -9.7759   31.9587   52.3233 C   0  0  1  0  0  0  0  0  0  0  0  0
   -9.3532   32.3923   50.9668 C   0  0  0  0  0  0  0  0  0  0  0  0
   -8.1217   33.2362   50.9297 C   0  0  0  0  0  0  0  0  0  0  0  0
   -8.4418   34.5052   51.7563 C   0  0  0  0  0  0  0  0  0  0  0  0
   -6.9088   32.6305   51.5878 C   0  0  0  0  0  0  0  0  0  0  0  0
  -11.1826   31.4269   52.4032 C   0  0  0  0  0  0  0  0  0  0  0  0
  -11.2610   30.2667   52.9434 O   0  0  0  0  0  0  0  0  0  0  0  0
  -12.2417   32.1835   51.9203 N   0  0  0  0  0  0  0  0  0  0  0  0
  -13.6526   31.8740   51.8828 C   0  0  1  0  0  0  0  0  0  0  0  0
  -13.9923   30.4587   52.3570 C   0  0  0  0  0  0  0  0  0  0  0  0
  -13.3709   29.4688   51.4582 C   0  0  0  0  0  0  0  0  0  0  0  0
  -12.7482   29.7519   50.3909 O   0  0  0  0  0  0  0  0  0  0  0  0
  -13.4696   28.1121   51.7975 O   0  0  0  0  0  0  0  0  0  0  0  0
  -14.4359   32.8926   52.5768 C   0  0  0  0  0  0  0  0  0  0  0  0
  -13.8101   33.9087   53.0372 O   0  0  0  0  0  0  0  0  0  0  0  0
  -15.8434   32.8588   52.7970 N   0  0  0  0  0  0  0  0  0  0  0  0
  -16.4002   33.9945   53.5439 C   0  0  1  0  0  0  0  0  0  0  0  0
  -17.5656   34.4808   52.7232 C   0  0  0  0  0  0  0  0  0  0  0  0
  -18.3088   35.6552   53.2689 C   0  0  0  0  0  0  0  0  0  0  0  0
  -17.4893   36.8980   53.4395 C   0  0  0  0  0  0  0  0  0  0  0  0
  -19.3820   36.0017   52.2146 C   0  0  0  0  0  0  0  0  0  0  0  0
  -16.7942   33.5157   54.9149 C   0  0  0  0  0  0  0  0  0  0  0  0
  -16.7516   32.2513   55.1028 O   0  0  0  0  0  0  0  0  0  0  0  0
  -17.1911   34.3652   55.9722 N   0  0  0  0  0  0  0  0  0  0  0  0
  -17.5394   33.7440   57.2412 C   0  0  1  0  0  0  0  0  0  0  0  0
  -16.3663   34.0071   58.2161 C   0  0  0  0  0  0  0  0  0  0  0  0
  -15.1149   33.3849   57.6366 C   0  0  0  0  0  0  0  0  0  0  0  0
  -14.7658   32.0647   57.9487 C   0  0  0  0  0  0  0  0  0  0  0  0
  -13.6351   31.5374   57.3928 C   0  0  0  0  0  0  0  0  0  0  0  0
  -12.7985   32.2513   56.5201 C   0  0  0  0  0  0  0  0  0  0  0  0
  -13.1523   33.5708   56.2122 C   0  0  0  0  0  0  0  0  0  0  0  0
  -14.2928   34.1150   56.7677 C   0  0  0  0  0  0  0  0  0  0  0  0
  -18.7620   34.2876   57.8395 C   0  0  0  0  0  0  0  0  0  0  0  0
  -19.3613   35.3216   57.4282 O   0  0  0  0  0  0  0  0  0  0  0  0
  -19.2986   33.6035   58.9487 O   0  0  0  0  0  0  0  0  0  0  0  0
  1  2  1  0
  2  3  2  0
  2  4  1  0
  4  5  1  0
  5  6  1  6
  6  7  1  0
  7  8  1  0
  8  9  1  0
  8 10  2  0
  5 11  1  0
 11 12  2  0
 11 13  1  0
 13 14  1  0
 14 15  1  6
 15 16  1  0
 16 17  1  0
 16 18  1  0
 14 19  1  0
 19 20  2  0
 19 21  1  0
 21 22  1  0
 22 23  1  1
 23 24  1  0
 24 25  2  0
 24 26  1  0
 22 27  1  0
 27 28  2  0
 27 29  1  0
 29 30  1  0
 30 31  1  6
 31 32  1  0
 32 33  1  0
 32 34  1  0
 30 35  1  0
 35 36  2  0
 35 37  1  0
 37 38  1  0
 38 39  1  1
 39 40  1  0
 40 41  2  0
 41 42  1  0
 42 43  2  0
 43 44  1  0
 44 45  2  0
 38 46  1  0
 46 47  2  0
 46 48  1  0
 45 40  1  0
M  CHG  2  26  -1  48  -1
M  END
>  <shape_align_shape_tanimoto>  (2) 
0.38710848094418798

>  <shape_align_color_tanimoto>  (2) 
0.077164190787666856

>  <metric>  (2) 
color

>  <metric_score>  (2) 
0.077

>  <template_pid>  (2) 
3Q4J

>  <template_shape_score>  (2) 
0.387

>  <template_color_score>  (2) 
0.077

>  <template_combo_score>  (2) 
0.232

$$$$
3Q4J_combo_pose
     RDKit          3D

 48 48  0  0  0  0  0  0  0  0999 V2000
   -4.9402   25.5290   52.2231 C   0  0  0  0  0  0  0  0  0  0  0  0
   -6.0582   26.1072   53.0157 C   0  0  0  0  0  0  0  0  0  0  0  0
   -6.6017   25.3644   53.8822 O   0  0  0  0  0  0  0  0  0  0  0  0
   -6.5254   27.4412   52.8332 N   0  0  0  0  0  0  0  0  0  0  0  0
   -7.6119   27.9448   53.6316 C   0  0  1  0  0  0  0  0  0  0  0  0
   -7.1409   29.1038   54.4507 C   0  0  0  0  0  0  0  0  0  0  0  0
   -6.6285   30.2465   53.6006 C   0  0  0  0  0  0  0  0  0  0  0  0
   -6.2046   31.3260   54.5474 C   0  0  0  0  0  0  0  0  0  0  0  0
   -5.7015   32.5212   53.9260 N   0  0  0  0  0  0  0  0  0  0  0  0
   -6.2796   31.2049   55.7938 O   0  0  0  0  0  0  0  0  0  0  0  0
   -8.7818   28.2686   52.7758 C   0  0  0  0  0  0  0  0  0  0  0  0
   -8.7444   28.0587   51.5230 O   0  0  0  0  0  0  0  0  0  0  0  0
   -9.9189   28.8111   53.3975 N   0  0  0  0  0  0  0  0  0  0  0  0
  -11.1396   29.1564   52.5391 C   0  0  1  0  0  0  0  0  0  0  0  0
  -12.2506   28.3577   53.0167 C   0  0  0  0  0  0  0  0  0  0  0  0
  -13.6133   28.3993   52.4157 C   0  0  0  0  0  0  0  0  0  0  0  0
  -14.5022   27.3400   53.1535 C   0  0  0  0  0  0  0  0  0  0  0  0
  -14.3585   29.7080   52.6317 C   0  0  0  0  0  0  0  0  0  0  0  0
  -11.1568   30.5965   52.6828 C   0  0  0  0  0  0  0  0  0  0  0  0
  -10.3997   31.0624   53.6342 O   0  0  0  0  0  0  0  0  0  0  0  0
  -11.8422   31.5896   51.9579 N   0  0  0  0  0  0  0  0  0  0  0  0
  -11.6329   32.9545   52.2821 C   0  0  1  0  0  0  0  0  0  0  0  0
  -11.0863   33.6163   51.0055 C   0  0  0  0  0  0  0  0  0  0  0  0
   -9.8337   33.0505   50.5180 C   0  0  0  0  0  0  0  0  0  0  0  0
   -9.3338   33.5910   49.4681 O   0  0  0  0  0  0  0  0  0  0  0  0
   -9.1266   32.0092   51.0492 O   0  0  0  0  0  0  0  0  0  0  0  0
  -12.7548   33.7863   52.7096 C   0  0  0  0  0  0  0  0  0  0  0  0
  -12.4634   35.0097   53.0017 O   0  0  0  0  0  0  0  0  0  0  0  0
  -14.1052   33.4428   52.8439 N   0  0  0  0  0  0  0  0  0  0  0  0
  -15.0959   34.4574   53.2966 C   0  0  1  0  0  0  0  0  0  0  0  0
  -16.1649   34.4029   52.2624 C   0  0  0  0  0  0  0  0  0  0  0  0
  -17.3208   35.3171   52.4421 C   0  0  0  0  0  0  0  0  0  0  0  0
  -16.9131   36.7598   52.4699 C   0  0  0  0  0  0  0  0  0  0  0  0
  -18.2332   35.1472   51.2117 C   0  0  0  0  0  0  0  0  0  0  0  0
  -15.5128   34.0963   54.6621 C   0  0  0  0  0  0  0  0  0  0  0  0
  -15.0874   32.9881   55.1225 O   0  0  0  0  0  0  0  0  0  0  0  0
  -16.3346   34.8663   55.5027 N   0  0  0  0  0  0  0  0  0  0  0  0
  -16.6524   34.3640   56.8200 C   0  0  1  0  0  0  0  0  0  0  0  0
  -16.0542   35.3206   57.8621 C   0  0  0  0  0  0  0  0  0  0  0  0
  -14.5767   35.3847   57.6816 C   0  0  0  0  0  0  0  0  0  0  0  0
  -13.7207   34.5238   58.3404 C   0  0  0  0  0  0  0  0  0  0  0  0
  -12.3485   34.5833   58.1723 C   0  0  0  0  0  0  0  0  0  0  0  0
  -11.8175   35.5438   57.3106 C   0  0  0  0  0  0  0  0  0  0  0  0
  -12.6644   36.4037   56.6523 C   0  0  0  0  0  0  0  0  0  0  0  0
  -14.0477   36.3479   56.8177 C   0  0  0  0  0  0  0  0  0  0  0  0
  -18.1108   34.3039   57.0909 C   0  0  0  0  0  0  0  0  0  0  0  0
  -18.6897   35.2149   57.7675 O   0  0  0  0  0  0  0  0  0  0  0  0
  -18.9154   33.2649   56.6268 O   0  0  0  0  0  0  0  0  0  0  0  0
  1  2  1  0
  2  3  2  0
  2  4  1  0
  4  5  1  0
  5  6  1  6
  6  7  1  0
  7  8  1  0
  8  9  1  0
  8 10  2  0
  5 11  1  0
 11 12  2  0
 11 13  1  0
 13 14  1  0
 14 15  1  1
 15 16  1  0
 16 17  1  0
 16 18  1  0
 14 19  1  0
 19 20  2  0
 19 21  1  0
 21 22  1  0
 22 23  1  6
 23 24  1  0
 24 25  2  0
 24 26  1  0
 22 27  1  0
 27 28  2  0
 27 29  1  0
 29 30  1  0
 30 31  1  6
 31 32  1  0
 32 33  1  0
 32 34  1  0
 30 35  1  0
 35 36  2  0
 35 37  1  0
 37 38  1  0
 38 39  1  1
 39 40  1  0
 40 41  2  0
 41 42  1  0
 42 43  2  0
 43 44  1  0
 44 45  2  0
 38 46  1  0
 46 47  2  0
 46 48  1  0
 45 40  1  0
M  CHG  2  26  -1  48  -1
M  END
>  <shape_align_shape_tanimoto>  (3) 
0.49032096558259819

>  <shape_align_color_tanimoto>  (3) 
0.068151543346765459

>  <metric>  (3) 
combo

>  <metric_score>  (3) 
0.279

>  <template_pid>  (3) 
3Q4J

>  <template_shape_score>  (3) 
0.490

>  <template_color_score>  (3) 
0.068

>  <template_combo_score>  (3) 
0.279

$$$$
