5ALG_shape_pose
     RDKit          3D

 13 14  0  0  0  0  0  0  0  0999 V2000
  -18.6449   -5.4893   62.2996 O   0  0  0  0  0  0  0  0  0  0  0  0
  -17.9874   -6.6135   61.8291 C   0  0  0  0  0  0  0  0  0  0  0  0
  -18.2069   -7.7581   62.8007 C   0  0  0  0  0  0  0  0  0  0  0  0
  -17.5534   -7.3058   64.4235 S   0  0  0  0  0  0  0  0  0  0  0  0
  -17.7764   -8.6128   65.6311 C   0  0  0  0  0  0  0  0  0  0  0  0
  -16.9012   -9.6067   65.8864 N   0  0  0  0  0  0  0  0  0  0  0  0
  -17.4052  -10.4132   66.8642 C   0  0  0  0  0  0  0  0  0  0  0  0
  -16.9401  -11.5476   67.4944 C   0  0  0  0  0  0  0  0  0  0  0  0
  -17.6829  -12.1774   68.4794 C   0  0  0  0  0  0  0  0  0  0  0  0
  -18.9187  -11.6239   68.8120 C   0  0  0  0  0  0  0  0  0  0  0  0
  -19.3916  -10.4873   68.1850 C   0  0  0  0  0  0  0  0  0  0  0  0
  -18.6404   -9.8567   67.1940 C   0  0  0  0  0  0  0  0  0  0  0  0
  -18.8632   -8.7632   66.4434 N   0  0  0  0  0  0  0  0  0  0  0  0
  1  2  1  0
  2  3  1  0
  3  4  1  0
  4  5  1  0
  5  6  2  0
  6  7  1  0
  7  8  2  0
  8  9  1  0
  9 10  2  0
 10 11  1  0
 11 12  2  0
 12 13  1  0
 13  5  1  0
 12  7  1  0
M  END
>  <shape_align_shape_tanimoto>  (1) 
0.85636714520972423

>  <shape_align_color_tanimoto>  (1) 
0.024541423313819619

>  <metric>  (1) 
shape

>  <metric_score>  (1) 
0.856

>  <template_pid>  (1) 
5ALG

>  <template_shape_score>  (1) 
0.856

>  <template_color_score>  (1) 
0.025

>  <template_combo_score>  (1) 
0.440

$$$$
5ALG_color_pose
     RDKit          3D

 13 14  0  0  0  0  0  0  0  0999 V2000
  -19.5985  -12.2909   67.7467 O   0  0  0  0  0  0  0  0  0  0  0  0
  -19.5670  -10.9652   68.2137 C   0  0  0  0  0  0  0  0  0  0  0  0
  -18.1634  -10.5473   68.5667 C   0  0  0  0  0  0  0  0  0  0  0  0
  -17.0515  -10.6390   67.1430 S   0  0  0  0  0  0  0  0  0  0  0  0
  -17.4372   -9.4261   65.8960 C   0  0  0  0  0  0  0  0  0  0  0  0
  -16.7632   -9.3443   64.7300 N   0  0  0  0  0  0  0  0  0  0  0  0
  -17.2940   -8.3301   63.9936 C   0  0  0  0  0  0  0  0  0  0  0  0
  -16.9783   -7.8301   62.7392 C   0  0  0  0  0  0  0  0  0  0  0  0
  -17.7242   -6.7545   62.2406 C   0  0  0  0  0  0  0  0  0  0  0  0
  -18.7620   -6.2039   62.9980 C   0  0  0  0  0  0  0  0  0  0  0  0
  -19.0677   -6.7087   64.2444 C   0  0  0  0  0  0  0  0  0  0  0  0
  -18.3227   -7.7680   64.7193 C   0  0  0  0  0  0  0  0  0  0  0  0
  -18.3757   -8.4703   65.8797 N   0  0  0  0  0  0  0  0  0  0  0  0
  1  2  1  0
  2  3  1  0
  3  4  1  0
  4  5  1  0
  5  6  2  0
  6  7  1  0
  7  8  2  0
  8  9  1  0
  9 10  2  0
 10 11  1  0
 11 12  2  0
 12 13  1  0
 13  5  1  0
 12  7  1  0
M  END
>  <shape_align_shape_tanimoto>  (2) 
0.7433530604714057

>  <shape_align_color_tanimoto>  (2) 
0.26405930676416695

>  <metric>  (2) 
color

>  <metric_score>  (2) 
0.264

>  <template_pid>  (2) 
5ALG

>  <template_shape_score>  (2) 
0.743

>  <template_color_score>  (2) 
0.264

>  <template_combo_score>  (2) 
0.504

$$$$
5ALG_combo_pose
     RDKit          3D

 13 14  0  0  0  0  0  0  0  0999 V2000
  -19.5985  -12.2909   67.7467 O   0  0  0  0  0  0  0  0  0  0  0  0
  -19.5670  -10.9652   68.2137 C   0  0  0  0  0  0  0  0  0  0  0  0
  -18.1634  -10.5473   68.5667 C   0  0  0  0  0  0  0  0  0  0  0  0
  -17.0515  -10.6390   67.1430 S   0  0  0  0  0  0  0  0  0  0  0  0
  -17.4372   -9.4261   65.8960 C   0  0  0  0  0  0  0  0  0  0  0  0
  -16.7632   -9.3443   64.7300 N   0  0  0  0  0  0  0  0  0  0  0  0
  -17.2940   -8.3301   63.9936 C   0  0  0  0  0  0  0  0  0  0  0  0
  -16.9783   -7.8301   62.7392 C   0  0  0  0  0  0  0  0  0  0  0  0
  -17.7242   -6.7545   62.2406 C   0  0  0  0  0  0  0  0  0  0  0  0
  -18.7620   -6.2039   62.9980 C   0  0  0  0  0  0  0  0  0  0  0  0
  -19.0677   -6.7087   64.2444 C   0  0  0  0  0  0  0  0  0  0  0  0
  -18.3227   -7.7680   64.7193 C   0  0  0  0  0  0  0  0  0  0  0  0
  -18.3757   -8.4703   65.8797 N   0  0  0  0  0  0  0  0  0  0  0  0
  1  2  1  0
  2  3  1  0
  3  4  1  0
  4  5  1  0
  5  6  2  0
  6  7  1  0
  7  8  2  0
  8  9  1  0
  9 10  2  0
 10 11  1  0
 11 12  2  0
 12 13  1  0
 13  5  1  0
 12  7  1  0
M  END
>  <shape_align_shape_tanimoto>  (3) 
0.7433530604714057

>  <shape_align_color_tanimoto>  (3) 
0.26405930676416695

>  <metric>  (3) 
combo

>  <metric_score>  (3) 
0.504

>  <template_pid>  (3) 
5ALG

>  <template_shape_score>  (3) 
0.743

>  <template_color_score>  (3) 
0.264

>  <template_combo_score>  (3) 
0.504

$$$$
