6G2B_shape_pose
     RDKit          3D

 18 20  0  0  0  0  0  0  0  0999 V2000
    9.3835    6.0938    5.6269 C   0  0  0  0  0  0  0  0  0  0  0  0
   10.3195    5.8015    4.5535 N   0  0  0  0  0  0  0  0  0  0  0  0
   11.6268    6.0918    4.5723 C   0  0  0  0  0  0  0  0  0  0  0  0
   12.1974    5.6864    3.4307 N   0  0  0  0  0  0  0  0  0  0  0  0
   11.2133    5.1308    2.6884 C   0  0  0  0  0  0  0  0  0  0  0  0
   11.4517    4.5644    1.3721 C   0  0  0  0  0  0  0  0  0  0  0  0
   11.4202    3.2047    1.1198 C   0  0  0  0  0  0  0  0  0  0  0  0
   11.6500    2.7188   -0.1730 C   0  0  0  0  0  0  0  0  0  0  0  0
   11.9132    3.5605   -1.2303 C   0  0  0  0  0  0  0  0  0  0  0  0
   11.9451    4.9176   -0.9814 C   0  0  0  0  0  0  0  0  0  0  0  0
   11.7160    5.4083    0.3102 C   0  0  0  0  0  0  0  0  0  0  0  0
   10.0172    5.1874    3.3670 C   0  0  0  0  0  0  0  0  0  0  0  0
    8.6978    4.7531    3.0100 C   0  0  0  0  0  0  0  0  0  0  0  0
    8.3120    3.4678    2.7284 C   0  0  0  0  0  0  0  0  0  0  0  0
    6.9827    3.1844    2.3974 C   0  0  0  0  0  0  0  0  0  0  0  0
    6.0359    4.1300    2.3385 N   0  0  0  0  0  0  0  0  0  0  0  0
    6.3948    5.4091    2.6134 C   0  0  0  0  0  0  0  0  0  0  0  0
    7.6983    5.7334    2.9450 C   0  0  0  0  0  0  0  0  0  0  0  0
  1  2  1  0
  2  3  1  0
  3  4  2  0
  4  5  1  0
  5  6  1  0
  6  7  2  0
  7  8  1  0
  8  9  2  0
  9 10  1  0
 10 11  2  0
  5 12  2  0
 12 13  1  0
 13 14  2  0
 14 15  1  0
 15 16  2  0
 16 17  1  0
 17 18  2  0
 12  2  1  0
 18 13  1  0
 11  6  1  0
M  END
>  <shape_align_shape_tanimoto>  (1) 
0.18091032590907816

>  <shape_align_color_tanimoto>  (1) 
0.0042904182740094478

>  <metric>  (1) 
shape

>  <metric_score>  (1) 
0.181

>  <template_pid>  (1) 
6G2B

>  <template_shape_score>  (1) 
0.181

>  <template_color_score>  (1) 
0.004

>  <template_combo_score>  (1) 
0.093

$$$$
6G2B_color_pose
     RDKit          3D

 18 20  0  0  0  0  0  0  0  0999 V2000
    6.4824    5.4519    4.6878 C   0  0  0  0  0  0  0  0  0  0  0  0
    6.8937    4.9342    3.3886 N   0  0  0  0  0  0  0  0  0  0  0  0
    6.0480    4.3837    2.4873 C   0  0  0  0  0  0  0  0  0  0  0  0
    6.7361    4.0054    1.3939 N   0  0  0  0  0  0  0  0  0  0  0  0
    8.0540    4.3117    1.5788 C   0  0  0  0  0  0  0  0  0  0  0  0
    9.1395    4.0682    0.6352 C   0  0  0  0  0  0  0  0  0  0  0  0
    9.8008    5.2026    0.1604 C   0  0  0  0  0  0  0  0  0  0  0  0
   10.8430    5.0671   -0.7386 C   0  0  0  0  0  0  0  0  0  0  0  0
   11.1944    3.7916   -1.1382 C   0  0  0  0  0  0  0  0  0  0  0  0
   10.5550    2.6573   -0.6821 C   0  0  0  0  0  0  0  0  0  0  0  0
    9.5081    2.8010    0.2217 C   0  0  0  0  0  0  0  0  0  0  0  0
    8.0955    4.8860    2.8329 C   0  0  0  0  0  0  0  0  0  0  0  0
    9.3115    5.3798    3.4710 C   0  0  0  0  0  0  0  0  0  0  0  0
    9.4582    6.7274    3.8139 C   0  0  0  0  0  0  0  0  0  0  0  0
   10.6280    7.1617    4.4201 C   0  0  0  0  0  0  0  0  0  0  0  0
   11.6461    6.3199    4.6961 N   0  0  0  0  0  0  0  0  0  0  0  0
   11.5033    5.0216    4.3650 C   0  0  0  0  0  0  0  0  0  0  0  0
   10.3604    4.5390    3.7606 C   0  0  0  0  0  0  0  0  0  0  0  0
  1  2  1  0
  2  3  1  0
  3  4  2  0
  4  5  1  0
  5  6  1  0
  6  7  2  0
  7  8  1  0
  8  9  2  0
  9 10  1  0
 10 11  2  0
  5 12  2  0
 12 13  1  0
 13 14  2  0
 14 15  1  0
 15 16  2  0
 16 17  1  0
 17 18  2  0
 12  2  1  0
 18 13  1  0
 11  6  1  0
M  END
>  <shape_align_shape_tanimoto>  (2) 
0.15602541376094178

>  <shape_align_color_tanimoto>  (2) 
0.021555163337849632

>  <metric>  (2) 
color

>  <metric_score>  (2) 
0.022

>  <template_pid>  (2) 
6G2B

>  <template_shape_score>  (2) 
0.156

>  <template_color_score>  (2) 
0.022

>  <template_combo_score>  (2) 
0.089

$$$$
6G2B_combo_pose
     RDKit          3D

 18 20  0  0  0  0  0  0  0  0999 V2000
   10.4355    6.2262    5.5083 C   0  0  0  0  0  0  0  0  0  0  0  0
   11.1660    5.8678    4.3406 N   0  0  0  0  0  0  0  0  0  0  0  0
   12.5091    5.9809    4.2478 C   0  0  0  0  0  0  0  0  0  0  0  0
   12.8367    5.5532    3.0066 N   0  0  0  0  0  0  0  0  0  0  0  0
   11.7181    5.1883    2.3589 C   0  0  0  0  0  0  0  0  0  0  0  0
   11.6951    4.6831    1.0022 C   0  0  0  0  0  0  0  0  0  0  0  0
   11.2651    3.4323    0.6549 C   0  0  0  0  0  0  0  0  0  0  0  0
   11.2907    3.0588   -0.6712 C   0  0  0  0  0  0  0  0  0  0  0  0
   11.7461    3.9484   -1.6114 C   0  0  0  0  0  0  0  0  0  0  0  0
   12.1857    5.2117   -1.3043 C   0  0  0  0  0  0  0  0  0  0  0  0
   12.1525    5.5662    0.0241 C   0  0  0  0  0  0  0  0  0  0  0  0
   10.6666    5.3839    3.1924 C   0  0  0  0  0  0  0  0  0  0  0  0
    9.2584    5.1433    2.9626 C   0  0  0  0  0  0  0  0  0  0  0  0
    8.4283    6.1325    2.4874 C   0  0  0  0  0  0  0  0  0  0  0  0
    7.0819    5.8826    2.2768 C   0  0  0  0  0  0  0  0  0  0  0  0
    6.5555    4.6752    2.5296 N   0  0  0  0  0  0  0  0  0  0  0  0
    7.3472    3.7011    2.9919 C   0  0  0  0  0  0  0  0  0  0  0  0
    8.6934    3.8982    3.2184 C   0  0  0  0  0  0  0  0  0  0  0  0
  1  2  1  0
  2  3  1  0
  3  4  2  0
  4  5  1  0
  5  6  1  0
  6  7  2  0
  7  8  1  0
  8  9  2  0
  9 10  1  0
 10 11  2  0
  5 12  2  0
 12 13  1  0
 13 14  2  0
 14 15  1  0
 15 16  2  0
 16 17  1  0
 17 18  2  0
 12  2  1  0
 18 13  1  0
 11  6  1  0
M  END
>  <shape_align_shape_tanimoto>  (3) 
0.17371687921652482

>  <shape_align_color_tanimoto>  (3) 
0.011810563635681707

>  <metric>  (3) 
combo

>  <metric_score>  (3) 
0.093

>  <template_pid>  (3) 
6G2B

>  <template_shape_score>  (3) 
0.174

>  <template_color_score>  (3) 
0.012

>  <template_combo_score>  (3) 
0.093

$$$$
