4U7T_shape_pose
     RDKit          3D

 80 79  0  0  0  0  0  0  0  0999 V2000
   40.6688   42.4918   52.9347 C   0  0  0  0  0  0  0  0  0  0  0  0
   41.7673   43.5635   52.9441 C   0  0  2  0  0  0  0  0  0  0  0  0
   42.9522   42.9480   53.4928 N   0  0  0  0  0  0  0  0  0  0  0  0
   41.2827   44.5401   54.0043 C   0  0  0  0  0  0  0  0  0  0  0  0
   41.9671   44.5361   55.0384 O   0  0  0  0  0  0  0  0  0  0  0  0
   40.1406   45.3284   53.7218 N   0  0  0  0  0  0  0  0  0  0  0  0
   39.4312   46.2573   54.4491 C   0  0  1  0  0  0  0  0  0  0  0  0
   39.7496   46.6559   55.8604 C   0  0  0  0  0  0  0  0  0  0  0  0
   39.5941   45.5492   56.8273 C   0  0  0  0  0  0  0  0  0  0  0  0
   39.9432   45.9422   58.2960 C   0  0  0  0  0  0  0  0  0  0  0  0
   39.7196   44.6455   58.9824 N   0  0  0  0  0  0  0  0  0  0  0  0
   38.3941   44.2126   59.2011 C   0  0  0  0  0  0  0  0  0  0  0  0
   38.2925   42.9113   59.8298 N   0  0  0  0  0  0  0  0  0  0  0  0
   37.3058   44.8728   58.8755 N   0  0  0  0  0  0  0  0  0  0  0  0
   38.9363   47.4114   53.7117 C   0  0  0  0  0  0  0  0  0  0  0  0
   38.3860   48.3272   54.3934 O   0  0  0  0  0  0  0  0  0  0  0  0
   39.0168   47.6033   52.2868 N   0  0  0  0  0  0  0  0  0  0  0  0
   38.4703   48.8320   51.7951 C   0  0  2  0  0  0  0  0  0  0  0  0
   37.3921   48.8015   50.8532 C   0  0  0  0  0  0  0  0  0  0  0  0
   36.9521   50.0765   50.6185 O   0  0  0  0  0  0  0  0  0  0  0  0
   36.6595   47.9005   50.1078 N   0  0  0  0  0  0  0  0  0  0  0  0
   35.5798   48.4740   49.2734 C   0  0  1  0  0  0  0  0  0  0  0  0
   36.3060   48.9615   47.9880 C   0  0  0  0  0  0  0  0  0  0  0  0
   35.3675   49.6369   47.0385 C   0  0  0  0  0  0  0  0  0  0  0  0
   34.7196   50.8712   47.5614 C   0  0  0  0  0  0  0  0  0  0  0  0
   33.7833   51.4496   46.5160 C   0  0  0  0  0  0  0  0  0  0  0  0
   33.1304   52.6090   47.1153 N   0  0  0  0  0  0  0  0  0  0  0  0
   34.5357   47.5508   48.8839 C   0  0  0  0  0  0  0  0  0  0  0  0
   33.4304   48.1222   48.4908 O   0  0  0  0  0  0  0  0  0  0  0  0
   34.4792   46.1511   48.8488 N   0  0  0  0  0  0  0  0  0  0  0  0
   33.2348   45.4826   48.4335 C   0  0  1  0  0  0  0  0  0  0  0  0
   33.3311   44.8358   47.0756 C   0  0  0  0  0  0  0  0  0  0  0  0
   33.5826   45.7283   45.9063 C   0  0  0  0  0  0  0  0  0  0  0  0
   32.5425   46.6594   45.7000 C   0  0  0  0  0  0  0  0  0  0  0  0
   32.5600   47.2213   44.2582 N   0  0  0  0  0  0  0  0  0  0  0  0
   31.5956   47.2047   46.2574 O   0  0  0  0  0  0  0  0  0  0  0  0
   33.0396   44.3950   49.4256 C   0  0  0  0  0  0  0  0  0  0  0  0
   34.0282   44.3008   50.2614 O   0  0  0  0  0  0  0  0  0  0  0  0
   31.9718   43.5098   49.5413 N   0  0  0  0  0  0  0  0  0  0  0  0
   32.0914   42.4780   50.6082 C   0  0  2  0  0  0  0  0  0  0  0  0
   32.0814   41.1821   49.8275 C   0  0  0  0  0  0  0  0  0  0  0  0
   31.3385   41.2116   48.8046 O   0  0  0  0  0  0  0  0  0  0  0  0
   32.8157   40.0591   50.1618 N   0  0  0  0  0  0  0  0  0  0  0  0
   32.8617   38.7981   49.4632 C   0  0  1  0  0  0  0  0  0  0  0  0
   32.3932   39.0910   47.9815 C   0  0  0  0  0  0  0  0  0  0  0  0
   34.2298   38.2752   49.3585 C   0  0  0  0  0  0  0  0  0  0  0  0
   34.4494   37.0583   48.9103 O   0  0  0  0  0  0  0  0  0  0  0  0
   35.3597   38.9850   49.6938 N   0  0  0  0  0  0  0  0  0  0  0  0
   36.7736   38.7698   49.6982 C   0  0  1  0  0  0  0  0  0  0  0  0
   37.1492   38.5848   48.1750 C   0  0  0  0  0  0  0  0  0  0  0  0
   38.5667   38.3968   47.9202 C   0  0  0  0  0  0  0  0  0  0  0  0
   39.3081   37.2801   48.5051 C   0  0  0  0  0  0  0  0  0  0  0  0
   38.8506   35.9509   48.1749 N   0  0  0  0  0  0  0  0  0  0  0  0
   39.5988   34.8758   48.6689 C   0  0  0  0  0  0  0  0  0  0  0  0
   39.2914   33.5033   48.4923 N   0  0  0  0  0  0  0  0  0  0  0  0
   40.6871   35.0916   49.3995 N   0  0  0  0  0  0  0  0  0  0  0  0
   37.5059   39.9267   50.1965 C   0  0  0  0  0  0  0  0  0  0  0  0
   38.7084   39.7315   50.6873 O   0  0  0  0  0  0  0  0  0  0  0  0
   37.0337   41.1953   50.1864 N   0  0  0  0  0  0  0  0  0  0  0  0
   37.6023   42.4808   50.6109 C   0  0  1  0  0  0  0  0  0  0  0  0
   37.4379   43.4865   49.4977 C   0  0  0  0  0  0  0  0  0  0  0  0
   38.1383   43.0125   48.2345 C   0  0  0  0  0  0  0  0  0  0  0  0
   39.5860   42.7394   48.4364 C   0  0  0  0  0  0  0  0  0  0  0  0
   40.1904   42.2483   47.1424 C   0  0  0  0  0  0  0  0  0  0  0  0
   40.0908   43.1758   46.0550 N   0  0  0  0  0  0  0  0  0  0  0  0
   36.8884   42.9016   51.8148 C   0  0  0  0  0  0  0  0  0  0  0  0
   36.5269   41.9316   52.5947 O   0  0  0  0  0  0  0  0  0  0  0  0
   36.5216   44.1779   52.2496 N   0  0  0  0  0  0  0  0  0  0  0  0
   35.8212   44.4359   53.4644 C   0  0  1  0  0  0  0  0  0  0  0  0
   35.5490   45.8925   53.7073 C   0  0  0  0  0  0  0  0  0  0  0  0
   34.7847   46.3981   52.6382 O   0  0  0  0  0  0  0  0  0  0  0  0
   34.4424   43.7883   53.4255 C   0  0  0  0  0  0  0  0  0  0  0  0
   33.4101   44.4401   53.2032 O   0  0  0  0  0  0  0  0  0  0  0  0
   34.2933   42.4205   53.6354 O   0  0  0  0  0  0  0  0  0  0  0  0
   30.8704   42.4993   51.4715 C   0  0  1  0  0  0  0  0  0  0  0  0
   30.9774   41.4524   52.5462 C   0  0  0  0  0  0  0  0  0  0  0  0
   30.6662   43.7248   52.1107 O   0  0  0  0  0  0  0  0  0  0  0  0
   39.5917   49.6986   51.1676 C   0  0  1  0  0  0  0  0  0  0  0  0
   40.1875   49.0220   49.9659 C   0  0  0  0  0  0  0  0  0  0  0  0
   38.9858   50.8590   50.7169 O   0  0  0  0  0  0  0  0  0  0  0  0
  2  1  1  1
  2  3  1  0
  2  4  1  0
  4  5  2  0
  4  6  1  0
  6  7  1  0
  7  8  1  1
  8  9  1  0
  9 10  1  0
 10 11  1  0
 11 12  1  0
 12 13  1  0
 12 14  2  0
  7 15  1  0
 15 16  2  0
 15 17  1  0
 18 17  1  6
 18 19  1  0
 19 20  2  0
 19 21  1  0
 21 22  1  0
 22 23  1  6
 23 24  1  0
 24 25  1  0
 25 26  1  0
 26 27  1  0
 22 28  1  0
 28 29  2  0
 28 30  1  0
 30 31  1  0
 31 32  1  6
 32 33  1  0
 33 34  1  0
 34 35  1  0
 34 36  2  0
 31 37  1  0
 37 38  2  0
 37 39  1  0
 40 39  1  6
 40 41  1  0
 41 42  2  0
 41 43  1  0
 43 44  1  0
 44 45  1  6
 44 46  1  0
 46 47  2  0
 46 48  1  0
 48 49  1  0
 49 50  1  6
 50 51  1  0
 51 52  1  0
 52 53  1  0
 53 54  1  0
 54 55  1  0
 54 56  2  0
 49 57  1  0
 57 58  2  0
 57 59  1  0
 59 60  1  0
 60 61  1  6
 61 62  1  0
 62 63  1  0
 63 64  1  0
 64 65  1  0
 60 66  1  0
 66 67  2  0
 66 68  1  0
 68 69  1  0
 69 70  1  6
 70 71  1  0
 69 72  1  0
 72 73  2  0
 72 74  1  0
 40 75  1  0
 75 76  1  1
 75 77  1  0
 18 78  1  0
 78 79  1  6
 78 80  1  0
M  CHG  6   3   1  14   1  27   1  56   1  65   1  74  -1
M  END
>  <shape_align_shape_tanimoto>  (1) 
0.394660008905588

>  <shape_align_color_tanimoto>  (1) 
0.026993645972741519

>  <metric>  (1) 
shape

>  <metric_score>  (1) 
0.395

>  <template_pid>  (1) 
4U7T

>  <template_shape_score>  (1) 
0.395

>  <template_color_score>  (1) 
0.027

>  <template_combo_score>  (1) 
0.211

$$$$
4U7T_color_pose
     RDKit          3D

 80 79  0  0  0  0  0  0  0  0999 V2000
   45.1791   44.8577   45.3711 C   0  0  0  0  0  0  0  0  0  0  0  0
   45.1254   43.3433   45.2145 C   0  0  2  0  0  0  0  0  0  0  0  0
   44.5157   43.0244   43.9280 N   0  0  0  0  0  0  0  0  0  0  0  0
   44.3314   42.7407   46.3246 C   0  0  0  0  0  0  0  0  0  0  0  0
   43.2682   42.1605   46.0025 O   0  0  0  0  0  0  0  0  0  0  0  0
   44.7489   42.8107   47.6932 N   0  0  0  0  0  0  0  0  0  0  0  0
   43.8546   42.1754   48.6534 C   0  0  1  0  0  0  0  0  0  0  0  0
   42.5113   42.8236   48.7198 C   0  0  0  0  0  0  0  0  0  0  0  0
   42.7417   44.2709   49.1372 C   0  0  0  0  0  0  0  0  0  0  0  0
   41.4762   45.0595   49.2661 C   0  0  0  0  0  0  0  0  0  0  0  0
   41.6547   46.4377   49.6359 N   0  0  0  0  0  0  0  0  0  0  0  0
   42.2244   47.4394   48.8368 C   0  0  0  0  0  0  0  0  0  0  0  0
   42.3373   48.7724   49.3719 N   0  0  0  0  0  0  0  0  0  0  0  0
   42.6537   47.2298   47.6521 N   0  0  0  0  0  0  0  0  0  0  0  0
   43.8525   40.7160   48.5320 C   0  0  0  0  0  0  0  0  0  0  0  0
   44.6907   40.1968   47.7273 O   0  0  0  0  0  0  0  0  0  0  0  0
   43.0080   39.8367   49.2220 N   0  0  0  0  0  0  0  0  0  0  0  0
   43.1190   38.3758   49.0116 C   0  0  2  0  0  0  0  0  0  0  0  0
   42.0692   37.9785   48.0607 C   0  0  0  0  0  0  0  0  0  0  0  0
   41.3319   38.9192   47.6038 O   0  0  0  0  0  0  0  0  0  0  0  0
   41.7995   36.6888   47.6034 N   0  0  0  0  0  0  0  0  0  0  0  0
   40.7487   36.3636   46.6287 C   0  0  1  0  0  0  0  0  0  0  0  0
   41.3422   35.6898   45.4318 C   0  0  0  0  0  0  0  0  0  0  0  0
   40.3051   35.3554   44.4149 C   0  0  0  0  0  0  0  0  0  0  0  0
   39.5246   36.5487   43.9094 C   0  0  0  0  0  0  0  0  0  0  0  0
   38.5252   35.9778   42.8984 C   0  0  0  0  0  0  0  0  0  0  0  0
   37.7070   37.0213   42.3476 N   0  0  0  0  0  0  0  0  0  0  0  0
   39.6692   35.5723   47.2187 C   0  0  0  0  0  0  0  0  0  0  0  0
   38.6765   35.1137   46.5748 O   0  0  0  0  0  0  0  0  0  0  0  0
   39.6377   35.2353   48.6298 N   0  0  0  0  0  0  0  0  0  0  0  0
   38.4826   34.4249   49.0261 C   0  0  1  0  0  0  0  0  0  0  0  0
   38.8498   33.4275   50.0738 C   0  0  0  0  0  0  0  0  0  0  0  0
   37.7461   32.5442   50.5450 C   0  0  0  0  0  0  0  0  0  0  0  0
   37.1365   31.6970   49.4970 C   0  0  0  0  0  0  0  0  0  0  0  0
   36.0393   30.8490   49.8316 N   0  0  0  0  0  0  0  0  0  0  0  0
   37.5203   31.6649   48.3009 O   0  0  0  0  0  0  0  0  0  0  0  0
   37.4878   35.4315   49.5616 C   0  0  0  0  0  0  0  0  0  0  0  0
   36.3468   34.9567   49.8155 O   0  0  0  0  0  0  0  0  0  0  0  0
   37.8083   36.7936   49.7612 N   0  0  0  0  0  0  0  0  0  0  0  0
   36.8689   37.7807   50.2530 C   0  0  2  0  0  0  0  0  0  0  0  0
   37.1697   39.1334   49.7440 C   0  0  0  0  0  0  0  0  0  0  0  0
   38.2298   39.3047   49.0536 O   0  0  0  0  0  0  0  0  0  0  0  0
   36.3131   40.2405   50.0077 N   0  0  0  0  0  0  0  0  0  0  0  0
   36.7752   41.5292   49.4502 C   0  0  1  0  0  0  0  0  0  0  0  0
   35.7343   41.9089   48.4045 C   0  0  0  0  0  0  0  0  0  0  0  0
   36.6434   42.5024   50.5543 C   0  0  0  0  0  0  0  0  0  0  0  0
   36.0253   42.0872   51.5952 O   0  0  0  0  0  0  0  0  0  0  0  0
   37.1239   43.8159   50.5777 N   0  0  0  0  0  0  0  0  0  0  0  0
   36.8523   44.5848   51.8032 C   0  0  1  0  0  0  0  0  0  0  0  0
   38.0999   44.4266   52.7068 C   0  0  0  0  0  0  0  0  0  0  0  0
   38.0099   45.1318   54.0034 C   0  0  0  0  0  0  0  0  0  0  0  0
   39.3050   44.8500   54.7540 C   0  0  0  0  0  0  0  0  0  0  0  0
   39.4918   43.4451   54.9926 N   0  0  0  0  0  0  0  0  0  0  0  0
   40.6459   42.9214   55.6774 C   0  0  0  0  0  0  0  0  0  0  0  0
   40.7767   41.5033   55.8873 N   0  0  0  0  0  0  0  0  0  0  0  0
   41.5548   43.7332   56.0979 N   0  0  0  0  0  0  0  0  0  0  0  0
   36.5492   46.0053   51.5497 C   0  0  0  0  0  0  0  0  0  0  0  0
   36.0881   46.6591   52.5548 O   0  0  0  0  0  0  0  0  0  0  0  0
   36.7367   46.6556   50.3024 N   0  0  0  0  0  0  0  0  0  0  0  0
   36.4545   48.0513   50.0334 C   0  0  1  0  0  0  0  0  0  0  0  0
   35.0579   48.2871   49.5938 C   0  0  0  0  0  0  0  0  0  0  0  0
   34.6864   49.7076   49.2608 C   0  0  0  0  0  0  0  0  0  0  0  0
   35.5563   50.2293   48.1311 C   0  0  0  0  0  0  0  0  0  0  0  0
   35.1718   51.6586   47.8300 C   0  0  0  0  0  0  0  0  0  0  0  0
   33.7934   51.7240   47.4351 N   0  0  0  0  0  0  0  0  0  0  0  0
   37.0142   48.9932   51.0117 C   0  0  0  0  0  0  0  0  0  0  0  0
   36.6281   50.2213   51.0044 O   0  0  0  0  0  0  0  0  0  0  0  0
   37.9777   48.6917   52.0026 N   0  0  0  0  0  0  0  0  0  0  0  0
   38.4507   49.7194   52.9216 C   0  0  1  0  0  0  0  0  0  0  0  0
   38.0390   49.3316   54.3279 C   0  0  0  0  0  0  0  0  0  0  0  0
   38.4611   50.2895   55.2578 O   0  0  0  0  0  0  0  0  0  0  0  0
   39.9133   49.9121   52.8289 C   0  0  0  0  0  0  0  0  0  0  0  0
   40.6952   49.1006   52.3005 O   0  0  0  0  0  0  0  0  0  0  0  0
   40.4558   51.0781   53.3669 O   0  0  0  0  0  0  0  0  0  0  0  0
   36.9570   37.8957   51.7768 C   0  0  1  0  0  0  0  0  0  0  0  0
   36.3620   36.7330   52.4935 C   0  0  0  0  0  0  0  0  0  0  0  0
   38.2201   38.2701   52.2140 O   0  0  0  0  0  0  0  0  0  0  0  0
   43.1243   37.7084   50.3342 C   0  0  1  0  0  0  0  0  0  0  0  0
   43.4469   36.2241   50.2903 C   0  0  0  0  0  0  0  0  0  0  0  0
   44.2345   38.2639   51.0416 O   0  0  0  0  0  0  0  0  0  0  0  0
  2  1  1  1
  2  3  1  0
  2  4  1  0
  4  5  2  0
  4  6  1  0
  6  7  1  0
  7  8  1  6
  8  9  1  0
  9 10  1  0
 10 11  1  0
 11 12  1  0
 12 13  1  0
 12 14  2  0
  7 15  1  0
 15 16  2  0
 15 17  1  0
 18 17  1  1
 18 19  1  0
 19 20  2  0
 19 21  1  0
 21 22  1  0
 22 23  1  6
 23 24  1  0
 24 25  1  0
 25 26  1  0
 26 27  1  0
 22 28  1  0
 28 29  2  0
 28 30  1  0
 30 31  1  0
 31 32  1  1
 32 33  1  0
 33 34  1  0
 34 35  1  0
 34 36  2  0
 31 37  1  0
 37 38  2  0
 37 39  1  0
 40 39  1  6
 40 41  1  0
 41 42  2  0
 41 43  1  0
 43 44  1  0
 44 45  1  6
 44 46  1  0
 46 47  2  0
 46 48  1  0
 48 49  1  0
 49 50  1  1
 50 51  1  0
 51 52  1  0
 52 53  1  0
 53 54  1  0
 54 55  1  0
 54 56  2  0
 49 57  1  0
 57 58  2  0
 57 59  1  0
 59 60  1  0
 60 61  1  1
 61 62  1  0
 62 63  1  0
 63 64  1  0
 64 65  1  0
 60 66  1  0
 66 67  2  0
 66 68  1  0
 68 69  1  0
 69 70  1  1
 70 71  1  0
 69 72  1  0
 72 73  2  0
 72 74  1  0
 40 75  1  0
 75 76  1  1
 75 77  1  0
 18 78  1  0
 78 79  1  6
 78 80  1  0
M  CHG  6   3   1  14   1  27   1  56   1  65   1  74  -1
M  END
>  <shape_align_shape_tanimoto>  (2) 
0.29943658900515574

>  <shape_align_color_tanimoto>  (2) 
0.033527428649295352

>  <metric>  (2) 
color

>  <metric_score>  (2) 
0.034

>  <template_pid>  (2) 
4U7T

>  <template_shape_score>  (2) 
0.299

>  <template_color_score>  (2) 
0.034

>  <template_combo_score>  (2) 
0.166

$$$$
4U7T_combo_pose
     RDKit          3D

 80 79  0  0  0  0  0  0  0  0999 V2000
   40.6688   42.4918   52.9347 C   0  0  0  0  0  0  0  0  0  0  0  0
   41.7673   43.5635   52.9441 C   0  0  2  0  0  0  0  0  0  0  0  0
   42.9522   42.9480   53.4928 N   0  0  0  0  0  0  0  0  0  0  0  0
   41.2827   44.5401   54.0043 C   0  0  0  0  0  0  0  0  0  0  0  0
   41.9671   44.5361   55.0384 O   0  0  0  0  0  0  0  0  0  0  0  0
   40.1406   45.3284   53.7218 N   0  0  0  0  0  0  0  0  0  0  0  0
   39.4312   46.2573   54.4491 C   0  0  1  0  0  0  0  0  0  0  0  0
   39.7496   46.6559   55.8604 C   0  0  0  0  0  0  0  0  0  0  0  0
   39.5941   45.5492   56.8273 C   0  0  0  0  0  0  0  0  0  0  0  0
   39.9432   45.9422   58.2960 C   0  0  0  0  0  0  0  0  0  0  0  0
   39.7196   44.6455   58.9824 N   0  0  0  0  0  0  0  0  0  0  0  0
   38.3941   44.2126   59.2011 C   0  0  0  0  0  0  0  0  0  0  0  0
   38.2925   42.9113   59.8298 N   0  0  0  0  0  0  0  0  0  0  0  0
   37.3058   44.8728   58.8755 N   0  0  0  0  0  0  0  0  0  0  0  0
   38.9363   47.4114   53.7117 C   0  0  0  0  0  0  0  0  0  0  0  0
   38.3860   48.3272   54.3934 O   0  0  0  0  0  0  0  0  0  0  0  0
   39.0168   47.6033   52.2868 N   0  0  0  0  0  0  0  0  0  0  0  0
   38.4703   48.8320   51.7951 C   0  0  2  0  0  0  0  0  0  0  0  0
   37.3921   48.8015   50.8532 C   0  0  0  0  0  0  0  0  0  0  0  0
   36.9521   50.0765   50.6185 O   0  0  0  0  0  0  0  0  0  0  0  0
   36.6595   47.9005   50.1078 N   0  0  0  0  0  0  0  0  0  0  0  0
   35.5798   48.4740   49.2734 C   0  0  1  0  0  0  0  0  0  0  0  0
   36.3060   48.9615   47.9880 C   0  0  0  0  0  0  0  0  0  0  0  0
   35.3675   49.6369   47.0385 C   0  0  0  0  0  0  0  0  0  0  0  0
   34.7196   50.8712   47.5614 C   0  0  0  0  0  0  0  0  0  0  0  0
   33.7833   51.4496   46.5160 C   0  0  0  0  0  0  0  0  0  0  0  0
   33.1304   52.6090   47.1153 N   0  0  0  0  0  0  0  0  0  0  0  0
   34.5357   47.5508   48.8839 C   0  0  0  0  0  0  0  0  0  0  0  0
   33.4304   48.1222   48.4908 O   0  0  0  0  0  0  0  0  0  0  0  0
   34.4792   46.1511   48.8488 N   0  0  0  0  0  0  0  0  0  0  0  0
   33.2348   45.4826   48.4335 C   0  0  1  0  0  0  0  0  0  0  0  0
   33.3311   44.8358   47.0756 C   0  0  0  0  0  0  0  0  0  0  0  0
   33.5826   45.7283   45.9063 C   0  0  0  0  0  0  0  0  0  0  0  0
   32.5425   46.6594   45.7000 C   0  0  0  0  0  0  0  0  0  0  0  0
   32.5600   47.2213   44.2582 N   0  0  0  0  0  0  0  0  0  0  0  0
   31.5956   47.2047   46.2574 O   0  0  0  0  0  0  0  0  0  0  0  0
   33.0396   44.3950   49.4256 C   0  0  0  0  0  0  0  0  0  0  0  0
   34.0282   44.3008   50.2614 O   0  0  0  0  0  0  0  0  0  0  0  0
   31.9718   43.5098   49.5413 N   0  0  0  0  0  0  0  0  0  0  0  0
   32.0914   42.4780   50.6082 C   0  0  2  0  0  0  0  0  0  0  0  0
   32.0814   41.1821   49.8275 C   0  0  0  0  0  0  0  0  0  0  0  0
   31.3385   41.2116   48.8046 O   0  0  0  0  0  0  0  0  0  0  0  0
   32.8157   40.0591   50.1618 N   0  0  0  0  0  0  0  0  0  0  0  0
   32.8617   38.7981   49.4632 C   0  0  1  0  0  0  0  0  0  0  0  0
   32.3932   39.0910   47.9815 C   0  0  0  0  0  0  0  0  0  0  0  0
   34.2298   38.2752   49.3585 C   0  0  0  0  0  0  0  0  0  0  0  0
   34.4494   37.0583   48.9103 O   0  0  0  0  0  0  0  0  0  0  0  0
   35.3597   38.9850   49.6938 N   0  0  0  0  0  0  0  0  0  0  0  0
   36.7736   38.7698   49.6982 C   0  0  1  0  0  0  0  0  0  0  0  0
   37.1492   38.5848   48.1750 C   0  0  0  0  0  0  0  0  0  0  0  0
   38.5667   38.3968   47.9202 C   0  0  0  0  0  0  0  0  0  0  0  0
   39.3081   37.2801   48.5051 C   0  0  0  0  0  0  0  0  0  0  0  0
   38.8506   35.9509   48.1749 N   0  0  0  0  0  0  0  0  0  0  0  0
   39.5988   34.8758   48.6689 C   0  0  0  0  0  0  0  0  0  0  0  0
   39.2914   33.5033   48.4923 N   0  0  0  0  0  0  0  0  0  0  0  0
   40.6871   35.0916   49.3995 N   0  0  0  0  0  0  0  0  0  0  0  0
   37.5059   39.9267   50.1965 C   0  0  0  0  0  0  0  0  0  0  0  0
   38.7084   39.7315   50.6873 O   0  0  0  0  0  0  0  0  0  0  0  0
   37.0337   41.1953   50.1864 N   0  0  0  0  0  0  0  0  0  0  0  0
   37.6023   42.4808   50.6109 C   0  0  1  0  0  0  0  0  0  0  0  0
   37.4379   43.4865   49.4977 C   0  0  0  0  0  0  0  0  0  0  0  0
   38.1383   43.0125   48.2345 C   0  0  0  0  0  0  0  0  0  0  0  0
   39.5860   42.7394   48.4364 C   0  0  0  0  0  0  0  0  0  0  0  0
   40.1904   42.2483   47.1424 C   0  0  0  0  0  0  0  0  0  0  0  0
   40.0908   43.1758   46.0550 N   0  0  0  0  0  0  0  0  0  0  0  0
   36.8884   42.9016   51.8148 C   0  0  0  0  0  0  0  0  0  0  0  0
   36.5269   41.9316   52.5947 O   0  0  0  0  0  0  0  0  0  0  0  0
   36.5216   44.1779   52.2496 N   0  0  0  0  0  0  0  0  0  0  0  0
   35.8212   44.4359   53.4644 C   0  0  1  0  0  0  0  0  0  0  0  0
   35.5490   45.8925   53.7073 C   0  0  0  0  0  0  0  0  0  0  0  0
   34.7847   46.3981   52.6382 O   0  0  0  0  0  0  0  0  0  0  0  0
   34.4424   43.7883   53.4255 C   0  0  0  0  0  0  0  0  0  0  0  0
   33.4101   44.4401   53.2032 O   0  0  0  0  0  0  0  0  0  0  0  0
   34.2933   42.4205   53.6354 O   0  0  0  0  0  0  0  0  0  0  0  0
   30.8704   42.4993   51.4715 C   0  0  1  0  0  0  0  0  0  0  0  0
   30.9774   41.4524   52.5462 C   0  0  0  0  0  0  0  0  0  0  0  0
   30.6662   43.7248   52.1107 O   0  0  0  0  0  0  0  0  0  0  0  0
   39.5917   49.6986   51.1676 C   0  0  1  0  0  0  0  0  0  0  0  0
   40.1875   49.0220   49.9659 C   0  0  0  0  0  0  0  0  0  0  0  0
   38.9858   50.8590   50.7169 O   0  0  0  0  0  0  0  0  0  0  0  0
  2  1  1  1
  2  3  1  0
  2  4  1  0
  4  5  2  0
  4  6  1  0
  6  7  1  0
  7  8  1  1
  8  9  1  0
  9 10  1  0
 10 11  1  0
 11 12  1  0
 12 13  1  0
 12 14  2  0
  7 15  1  0
 15 16  2  0
 15 17  1  0
 18 17  1  6
 18 19  1  0
 19 20  2  0
 19 21  1  0
 21 22  1  0
 22 23  1  6
 23 24  1  0
 24 25  1  0
 25 26  1  0
 26 27  1  0
 22 28  1  0
 28 29  2  0
 28 30  1  0
 30 31  1  0
 31 32  1  6
 32 33  1  0
 33 34  1  0
 34 35  1  0
 34 36  2  0
 31 37  1  0
 37 38  2  0
 37 39  1  0
 40 39  1  6
 40 41  1  0
 41 42  2  0
 41 43  1  0
 43 44  1  0
 44 45  1  6
 44 46  1  0
 46 47  2  0
 46 48  1  0
 48 49  1  0
 49 50  1  6
 50 51  1  0
 51 52  1  0
 52 53  1  0
 53 54  1  0
 54 55  1  0
 54 56  2  0
 49 57  1  0
 57 58  2  0
 57 59  1  0
 59 60  1  0
 60 61  1  6
 61 62  1  0
 62 63  1  0
 63 64  1  0
 64 65  1  0
 60 66  1  0
 66 67  2  0
 66 68  1  0
 68 69  1  0
 69 70  1  6
 70 71  1  0
 69 72  1  0
 72 73  2  0
 72 74  1  0
 40 75  1  0
 75 76  1  1
 75 77  1  0
 18 78  1  0
 78 79  1  6
 78 80  1  0
M  CHG  6   3   1  14   1  27   1  56   1  65   1  74  -1
M  END
>  <shape_align_shape_tanimoto>  (3) 
0.394660008905588

>  <shape_align_color_tanimoto>  (3) 
0.026993645972741519

>  <metric>  (3) 
combo

>  <metric_score>  (3) 
0.211

>  <template_pid>  (3) 
4U7T

>  <template_shape_score>  (3) 
0.395

>  <template_color_score>  (3) 
0.027

>  <template_combo_score>  (3) 
0.211

$$$$
