1UEF_shape_pose
     RDKit          3D

 88 90  0  0  0  0  0  0  0  0999 V2000
   31.3090   51.8243   11.8893 C   0  0  0  0  0  0  0  0  0  0  0  0
   31.4902   52.0750   13.3701 C   0  0  0  0  0  0  0  0  0  0  0  0
   32.8216   52.6780   13.6780 C   0  0  2  0  0  0  0  0  0  0  0  0
   32.9829   53.9869   12.9806 C   0  0  0  0  0  0  0  0  0  0  0  0
   33.9988   51.7544   13.5011 C   0  0  2  0  0  0  0  0  0  0  0  0
   34.1213   51.2451   12.1691 N   0  0  0  0  0  0  0  0  0  0  0  0
   35.0217   51.8354   11.1997 C   0  0  0  0  0  0  0  0  0  0  0  0
   35.7102   52.8224   11.4693 O   0  0  0  0  0  0  0  0  0  0  0  0
   35.0439   51.1441    9.8351 C   0  0  2  0  0  0  0  0  0  0  0  0
   35.5813   49.7937   10.1292 C   0  0  0  0  0  0  0  0  0  0  0  0
   35.7550   48.8446    9.0390 C   0  0  0  0  0  0  0  0  0  0  0  0
   37.0303   48.5459    8.5107 C   0  0  0  0  0  0  0  0  0  0  0  0
   36.8866   47.6261    7.5340 N   0  0  0  0  0  0  0  0  0  0  0  0
   35.5644   47.3336    7.4273 C   0  0  0  0  0  0  0  0  0  0  0  0
   34.9097   46.4470    6.5734 C   0  0  0  0  0  0  0  0  0  0  0  0
   33.5259   46.3376    6.6787 C   0  0  0  0  0  0  0  0  0  0  0  0
   32.8066   47.0754    7.5941 C   0  0  0  0  0  0  0  0  0  0  0  0
   33.4846   47.9571    8.4389 C   0  0  0  0  0  0  0  0  0  0  0  0
   34.8469   48.0762    8.3479 C   0  0  0  0  0  0  0  0  0  0  0  0
   35.7575   51.8739    8.8508 N   0  0  0  0  0  0  0  0  0  0  0  0
   37.0258   52.4704    8.9467 C   0  0  0  0  0  0  0  0  0  0  0  0
   37.7595   52.4281    9.9832 O   0  0  0  0  0  0  0  0  0  0  0  0
   37.5797   53.2086    7.7931 C   0  0  1  0  0  0  0  0  0  0  0  0
   38.9020   53.7441    8.0127 N   0  0  0  0  0  0  0  0  0  0  0  0
   37.5378   52.4561    6.5074 C   0  0  1  0  0  0  0  0  0  0  0  0
   37.8802   53.3790    5.3578 C   0  0  0  0  0  0  0  0  0  0  0  0
   38.4289   51.3999    6.4748 O   0  0  0  0  0  0  0  0  0  0  0  0
   34.0455   50.6765   14.5166 C   0  0  0  0  0  0  0  0  0  0  0  0
   34.0489   51.0481   15.7239 O   0  0  0  0  0  0  0  0  0  0  0  0
   34.0865   49.3133   14.1803 N   0  0  0  0  0  0  0  0  0  0  0  0
   34.1645   48.1799   15.0338 C   0  0  1  0  0  0  0  0  0  0  0  0
   34.8614   48.4983   16.3626 C   0  0  0  0  0  0  0  0  0  0  0  0
   36.2689   48.9286   16.1546 C   0  0  0  0  0  0  0  0  0  0  0  0
   37.1666   47.9150   15.5558 C   0  0  0  0  0  0  0  0  0  0  0  0
   36.8983   46.7456   15.2901 O   0  0  0  0  0  0  0  0  0  0  0  0
   38.4731   48.3513   15.2600 O   0  0  0  0  0  0  0  0  0  0  0  0
   32.8726   47.5486   15.2666 C   0  0  0  0  0  0  0  0  0  0  0  0
   32.8820   46.4500   15.9306 O   0  0  0  0  0  0  0  0  0  0  0  0
   31.6028   48.0154   14.8444 N   0  0  0  0  0  0  0  0  0  0  0  0
   30.4415   47.1975   15.2157 C   0  0  1  0  0  0  0  0  0  0  0  0
   29.9691   47.7096   16.5994 C   0  0  0  0  0  0  0  0  0  0  0  0
   28.8467   46.9938   17.1645 C   0  0  0  0  0  0  0  0  0  0  0  0
   28.3446   47.5136   18.4347 N   0  0  0  0  0  0  0  0  0  0  0  0
   28.2387   46.0046   16.7425 O   0  0  0  0  0  0  0  0  0  0  0  0
   29.3717   47.2092   14.2211 C   0  0  0  0  0  0  0  0  0  0  0  0
   28.3214   46.4741   14.2932 O   0  0  0  0  0  0  0  0  0  0  0  0
   29.3677   48.0512   13.0456 N   0  0  0  0  0  0  0  0  0  0  0  0
   28.2982   48.0437   12.1088 C   0  0  1  0  0  0  0  0  0  0  0  0
   27.4381   49.2639   12.3016 C   0  0  0  0  0  0  0  0  0  0  0  0
   28.1505   50.5751   12.1046 C   0  0  0  0  0  0  0  0  0  0  0  0
   27.0674   51.6462   12.3116 C   0  0  0  0  0  0  0  0  0  0  0  0
   27.6884   52.9959   12.1144 C   0  0  0  0  0  0  0  0  0  0  0  0
   26.7193   54.0716   12.2773 N   0  0  0  0  0  0  0  0  0  0  0  0
   28.7071   47.8218   10.6917 C   0  0  0  0  0  0  0  0  0  0  0  0
   29.8461   47.3747   10.3946 O   0  0  0  0  0  0  0  0  0  0  0  0
   27.7630   48.1439    9.6873 N   0  0  0  0  0  0  0  0  0  0  0  0
   27.9437   48.0089    8.2704 C   0  0  1  0  0  0  0  0  0  0  0  0
   26.7692   47.9012    7.4213 C   0  0  0  0  0  0  0  0  0  0  0  0
   25.7662   48.9754    7.3543 C   0  0  0  0  0  0  0  0  0  0  0  0
   25.0297   49.3734    8.5712 C   0  0  0  0  0  0  0  0  0  0  0  0
   24.7136   48.5244    6.3160 C   0  0  0  0  0  0  0  0  0  0  0  0
   29.0068   48.9694    7.7959 C   0  0  0  0  0  0  0  0  0  0  0  0
   29.7755   49.4727    8.6920 O   0  0  0  0  0  0  0  0  0  0  0  0
   29.1741   49.3214    6.4354 N   0  0  0  0  0  0  0  0  0  0  0  0
   30.1889   50.2121    5.9241 C   0  0  1  0  0  0  0  0  0  0  0  0
   30.4923   50.1103    4.5244 C   0  0  0  0  0  0  0  0  0  0  0  0
   29.4900   50.3357    3.5033 C   0  0  0  0  0  0  0  0  0  0  0  0
   29.2083   51.5774    2.9280 C   0  0  0  0  0  0  0  0  0  0  0  0
   28.2456   51.7346    1.9549 C   0  0  0  0  0  0  0  0  0  0  0  0
   27.5121   50.6461    1.5064 C   0  0  0  0  0  0  0  0  0  0  0  0
   26.5369   50.7932    0.5186 O   0  0  0  0  0  0  0  0  0  0  0  0
   27.7710   49.4133    2.0571 C   0  0  0  0  0  0  0  0  0  0  0  0
   28.7394   49.2794    3.0307 C   0  0  0  0  0  0  0  0  0  0  0  0
   29.9677   51.5302    6.5633 C   0  0  0  0  0  0  0  0  0  0  0  0
   29.1203   51.7096    7.4690 O   0  0  0  0  0  0  0  0  0  0  0  0
   30.7317   52.6624    6.1650 N   0  0  0  0  0  0  0  0  0  0  0  0
   30.5338   53.9073    6.8302 C   0  0  0  0  0  0  0  0  0  0  0  0
   31.3443   55.0369    6.2989 C   0  0  0  0  0  0  0  0  0  0  0  0
   32.0755   54.9432    5.2795 O   0  0  0  0  0  0  0  0  0  0  0  0
   31.2449   56.2695    7.0374 N   0  0  0  0  0  0  0  0  0  0  0  0
   31.9658   57.4637    6.6352 C   0  0  1  0  0  0  0  0  0  0  0  0
   31.5384   58.6922    7.3567 C   0  0  0  0  0  0  0  0  0  0  0  0
   30.1173   59.0940    7.2329 C   0  0  0  0  0  0  0  0  0  0  0  0
   29.5687   59.4433    5.5413 S   0  0  0  0  0  0  0  0  0  0  0  0
   27.7922   59.9137    5.5928 C   0  0  0  0  0  0  0  0  0  0  0  0
   33.4543   57.2272    6.9745 C   0  0  0  0  0  0  0  0  0  0  0  0
   33.7969   56.1368    7.4981 O   0  0  0  0  0  0  0  0  0  0  0  0
   34.3904   58.2075    6.7007 O   0  0  0  0  0  0  0  0  0  0  0  0
  1  2  1  0
  2  3  1  0
  3  4  1  6
  3  5  1  0
  5  6  1  6
  6  7  1  0
  7  8  2  0
  7  9  1  0
  9 10  1  1
 10 11  1  0
 11 12  2  0
 12 13  1  0
 13 14  1  0
 14 15  2  0
 15 16  1  0
 16 17  2  0
 17 18  1  0
 18 19  2  0
  9 20  1  0
 20 21  1  0
 21 22  2  0
 21 23  1  0
 23 24  1  1
 23 25  1  0
 25 26  1  6
 25 27  1  0
  5 28  1  0
 28 29  2  0
 28 30  1  0
 30 31  1  0
 31 32  1  1
 32 33  1  0
 33 34  1  0
 34 35  2  0
 34 36  1  0
 31 37  1  0
 37 38  2  0
 37 39  1  0
 39 40  1  0
 40 41  1  1
 41 42  1  0
 42 43  1  0
 42 44  2  0
 40 45  1  0
 45 46  2  0
 45 47  1  0
 47 48  1  0
 48 49  1  6
 49 50  1  0
 50 51  1  0
 51 52  1  0
 52 53  1  0
 48 54  1  0
 54 55  2  0
 54 56  1  0
 56 57  1  0
 57 58  1  6
 58 59  1  0
 59 60  1  0
 59 61  1  0
 57 62  1  0
 62 63  2  0
 62 64  1  0
 64 65  1  0
 65 66  1  6
 66 67  1  0
 67 68  2  0
 68 69  1  0
 69 70  2  0
 70 71  1  0
 70 72  1  0
 72 73  2  0
 65 74  1  0
 74 75  2  0
 74 76  1  0
 76 77  1  0
 77 78  1  0
 78 79  2  0
 78 80  1  0
 80 81  1  0
 81 82  1  1
 82 83  1  0
 83 84  1  0
 84 85  1  0
 81 86  1  0
 86 87  2  0
 86 88  1  0
 19 11  1  0
 73 67  1  0
 19 14  1  0
M  CHG  3  24   1  36  -1  53   1
M  END
>  <shape_align_shape_tanimoto>  (1) 
0.18697730364083356

>  <shape_align_color_tanimoto>  (1) 
0.020143927691386142

>  <metric>  (1) 
shape

>  <metric_score>  (1) 
0.187

>  <template_pid>  (1) 
1UEF

>  <template_shape_score>  (1) 
0.187

>  <template_color_score>  (1) 
0.020

>  <template_combo_score>  (1) 
0.104

$$$$
1UEF_color_pose
     RDKit          3D

 88 90  0  0  0  0  0  0  0  0999 V2000
   32.1526   44.4840   10.6552 C   0  0  0  0  0  0  0  0  0  0  0  0
   30.6706   44.5448   10.7249 C   0  0  0  0  0  0  0  0  0  0  0  0
   29.9227   44.6139    9.4448 C   0  0  2  0  0  0  0  0  0  0  0  0
   30.1631   43.4722    8.4980 C   0  0  0  0  0  0  0  0  0  0  0  0
   30.0357   45.9275    8.6889 C   0  0  2  0  0  0  0  0  0  0  0  0
   31.4061   46.2007    8.3378 N   0  0  0  0  0  0  0  0  0  0  0  0
   31.6433   46.3245    6.9154 C   0  0  0  0  0  0  0  0  0  0  0  0
   30.6449   46.2045    6.1047 O   0  0  0  0  0  0  0  0  0  0  0  0
   32.9298   46.5796    6.2745 C   0  0  2  0  0  0  0  0  0  0  0  0
   33.0350   45.6547    5.0761 C   0  0  0  0  0  0  0  0  0  0  0  0
   34.3050   45.9053    4.3833 C   0  0  0  0  0  0  0  0  0  0  0  0
   34.3716   46.7370    3.2523 C   0  0  0  0  0  0  0  0  0  0  0  0
   35.6451   46.8323    2.8369 N   0  0  0  0  0  0  0  0  0  0  0  0
   36.4209   46.0775    3.6717 C   0  0  0  0  0  0  0  0  0  0  0  0
   37.7802   45.8764    3.6151 C   0  0  0  0  0  0  0  0  0  0  0  0
   38.3220   45.0410    4.5893 C   0  0  0  0  0  0  0  0  0  0  0  0
   37.4915   44.4774    5.5289 C   0  0  0  0  0  0  0  0  0  0  0  0
   36.1230   44.6955    5.5661 C   0  0  0  0  0  0  0  0  0  0  0  0
   35.5890   45.5205    4.6053 C   0  0  0  0  0  0  0  0  0  0  0  0
   34.0867   46.5215    7.0974 N   0  0  0  0  0  0  0  0  0  0  0  0
   35.0699   47.5316    7.2092 C   0  0  0  0  0  0  0  0  0  0  0  0
   34.8748   48.5802    6.5157 O   0  0  0  0  0  0  0  0  0  0  0  0
   36.2492   47.3920    8.0630 C   0  0  1  0  0  0  0  0  0  0  0  0
   37.0177   48.6314    7.9899 N   0  0  0  0  0  0  0  0  0  0  0  0
   35.9663   47.0702    9.5068 C   0  0  1  0  0  0  0  0  0  0  0  0
   37.3235   46.9117   10.1817 C   0  0  0  0  0  0  0  0  0  0  0  0
   35.2401   48.1223   10.0590 O   0  0  0  0  0  0  0  0  0  0  0  0
   29.4142   47.0235    9.4043 C   0  0  0  0  0  0  0  0  0  0  0  0
   28.1235   47.0544    9.3884 O   0  0  0  0  0  0  0  0  0  0  0  0
   30.0125   48.0809   10.1318 N   0  0  0  0  0  0  0  0  0  0  0  0
   29.0932   49.0451   10.7125 C   0  0  1  0  0  0  0  0  0  0  0  0
   28.4113   48.3199   11.9366 C   0  0  0  0  0  0  0  0  0  0  0  0
   27.4395   49.2020   12.6292 C   0  0  0  0  0  0  0  0  0  0  0  0
   26.7370   48.5451   13.7802 C   0  0  0  0  0  0  0  0  0  0  0  0
   26.9531   47.3569   14.1180 O   0  0  0  0  0  0  0  0  0  0  0  0
   25.8152   49.3641   14.4513 O   0  0  0  0  0  0  0  0  0  0  0  0
   29.6292   50.3003   11.1498 C   0  0  0  0  0  0  0  0  0  0  0  0
   28.8076   51.2854   11.3008 O   0  0  0  0  0  0  0  0  0  0  0  0
   30.9811   50.6207   11.4623 N   0  0  0  0  0  0  0  0  0  0  0  0
   31.2171   52.0044   11.8997 C   0  0  1  0  0  0  0  0  0  0  0  0
   30.7843   52.0124   13.3788 C   0  0  0  0  0  0  0  0  0  0  0  0
   30.8984   53.3266   13.9599 C   0  0  0  0  0  0  0  0  0  0  0  0
   30.6827   53.4609   15.3754 N   0  0  0  0  0  0  0  0  0  0  0  0
   31.1700   54.4113   13.3709 O   0  0  0  0  0  0  0  0  0  0  0  0
   32.6008   52.4162   11.7477 C   0  0  0  0  0  0  0  0  0  0  0  0
   33.0218   53.6155   11.9726 O   0  0  0  0  0  0  0  0  0  0  0  0
   33.6693   51.5401   11.3398 N   0  0  0  0  0  0  0  0  0  0  0  0
   35.0147   52.0711   11.2542 C   0  0  1  0  0  0  0  0  0  0  0  0
   35.8254   51.3908   12.4028 C   0  0  0  0  0  0  0  0  0  0  0  0
   35.1425   51.7660   13.6761 C   0  0  0  0  0  0  0  0  0  0  0  0
   35.8130   51.1378   14.8750 C   0  0  0  0  0  0  0  0  0  0  0  0
   35.7450   49.6250   14.7244 C   0  0  0  0  0  0  0  0  0  0  0  0
   36.3677   48.9683   15.8726 N   0  0  0  0  0  0  0  0  0  0  0  0
   35.7042   51.7949    9.9726 C   0  0  0  0  0  0  0  0  0  0  0  0
   35.0951   51.0931    9.1269 O   0  0  0  0  0  0  0  0  0  0  0  0
   36.9935   52.3402    9.7951 N   0  0  0  0  0  0  0  0  0  0  0  0
   37.8087   52.1625    8.6139 C   0  0  1  0  0  0  0  0  0  0  0  0
   37.8325   53.5356    7.8568 C   0  0  0  0  0  0  0  0  0  0  0  0
   36.4597   53.9602    7.4479 C   0  0  0  0  0  0  0  0  0  0  0  0
   35.7831   53.0069    6.5219 C   0  0  0  0  0  0  0  0  0  0  0  0
   36.5621   55.3112    6.7821 C   0  0  0  0  0  0  0  0  0  0  0  0
   39.2450   51.9290    8.9139 C   0  0  0  0  0  0  0  0  0  0  0  0
   39.5922   52.2131   10.1232 O   0  0  0  0  0  0  0  0  0  0  0  0
   40.1841   51.4394    7.9865 N   0  0  0  0  0  0  0  0  0  0  0  0
   41.5644   51.2870    8.4106 C   0  0  1  0  0  0  0  0  0  0  0  0
   41.7623   49.9553    9.1176 C   0  0  0  0  0  0  0  0  0  0  0  0
   43.1622   49.8046    9.5259 C   0  0  0  0  0  0  0  0  0  0  0  0
   44.0623   49.0968    8.7141 C   0  0  0  0  0  0  0  0  0  0  0  0
   45.3919   48.9609    9.0709 C   0  0  0  0  0  0  0  0  0  0  0  0
   45.8527   49.5204   10.2324 C   0  0  0  0  0  0  0  0  0  0  0  0
   47.1912   49.3702   10.5646 O   0  0  0  0  0  0  0  0  0  0  0  0
   45.0017   50.2237   11.0601 C   0  0  0  0  0  0  0  0  0  0  0  0
   43.6632   50.3554   10.6921 C   0  0  0  0  0  0  0  0  0  0  0  0
   42.4427   51.5255    7.2870 C   0  0  0  0  0  0  0  0  0  0  0  0
   43.7205   51.5894    7.5775 O   0  0  0  0  0  0  0  0  0  0  0  0
   42.1536   51.6976    5.9339 N   0  0  0  0  0  0  0  0  0  0  0  0
   43.0620   51.9352    4.8587 C   0  0  0  0  0  0  0  0  0  0  0  0
   44.1117   50.8886    4.7167 C   0  0  0  0  0  0  0  0  0  0  0  0
   44.2286   49.9071    5.4807 O   0  0  0  0  0  0  0  0  0  0  0  0
   45.0226   51.0180    3.6552 N   0  0  0  0  0  0  0  0  0  0  0  0
   46.1081   50.1119    3.3816 C   0  0  1  0  0  0  0  0  0  0  0  0
   45.5425   48.9222    2.6343 C   0  0  0  0  0  0  0  0  0  0  0  0
   44.8780   49.2558    1.3356 C   0  0  0  0  0  0  0  0  0  0  0  0
   44.2289   47.7200    0.5559 S   0  0  0  0  0  0  0  0  0  0  0  0
   42.9073   47.0558    1.6094 C   0  0  0  0  0  0  0  0  0  0  0  0
   47.2957   50.7160    2.8039 C   0  0  0  0  0  0  0  0  0  0  0  0
   47.3585   51.9738    2.5640 O   0  0  0  0  0  0  0  0  0  0  0  0
   48.4064   49.9493    2.4897 O   0  0  0  0  0  0  0  0  0  0  0  0
  1  2  1  0
  2  3  1  0
  3  4  1  6
  3  5  1  0
  5  6  1  1
  6  7  1  0
  7  8  2  0
  7  9  1  0
  9 10  1  6
 10 11  1  0
 11 12  2  0
 12 13  1  0
 13 14  1  0
 14 15  2  0
 15 16  1  0
 16 17  2  0
 17 18  1  0
 18 19  2  0
  9 20  1  0
 20 21  1  0
 21 22  2  0
 21 23  1  0
 23 24  1  1
 23 25  1  0
 25 26  1  1
 25 27  1  0
  5 28  1  0
 28 29  2  0
 28 30  1  0
 30 31  1  0
 31 32  1  1
 32 33  1  0
 33 34  1  0
 34 35  2  0
 34 36  1  0
 31 37  1  0
 37 38  2  0
 37 39  1  0
 39 40  1  0
 40 41  1  1
 41 42  1  0
 42 43  1  0
 42 44  2  0
 40 45  1  0
 45 46  2  0
 45 47  1  0
 47 48  1  0
 48 49  1  1
 49 50  1  0
 50 51  1  0
 51 52  1  0
 52 53  1  0
 48 54  1  0
 54 55  2  0
 54 56  1  0
 56 57  1  0
 57 58  1  6
 58 59  1  0
 59 60  1  0
 59 61  1  0
 57 62  1  0
 62 63  2  0
 62 64  1  0
 64 65  1  0
 65 66  1  6
 66 67  1  0
 67 68  2  0
 68 69  1  0
 69 70  2  0
 70 71  1  0
 70 72  1  0
 72 73  2  0
 65 74  1  0
 74 75  2  0
 74 76  1  0
 76 77  1  0
 77 78  1  0
 78 79  2  0
 78 80  1  0
 80 81  1  0
 81 82  1  6
 82 83  1  0
 83 84  1  0
 84 85  1  0
 81 86  1  0
 86 87  2  0
 86 88  1  0
 19 11  1  0
 73 67  1  0
 19 14  1  0
M  CHG  3  24   1  36  -1  53   1
M  END
>  <shape_align_shape_tanimoto>  (2) 
0.14420133262565041

>  <shape_align_color_tanimoto>  (2) 
0.071167484272167611

>  <metric>  (2) 
color

>  <metric_score>  (2) 
0.071

>  <template_pid>  (2) 
1UEF

>  <template_shape_score>  (2) 
0.144

>  <template_color_score>  (2) 
0.071

>  <template_combo_score>  (2) 
0.108

$$$$
1UEF_combo_pose
     RDKit          3D

 88 90  0  0  0  0  0  0  0  0999 V2000
   26.3273   56.0798    6.3275 C   0  0  0  0  0  0  0  0  0  0  0  0
   27.3988   55.1685    6.8255 C   0  0  0  0  0  0  0  0  0  0  0  0
   27.4533   55.2129    8.3311 C   0  0  2  0  0  0  0  0  0  0  0  0
   27.7799   56.5825    8.7896 C   0  0  0  0  0  0  0  0  0  0  0  0
   28.2475   54.0848    8.9410 C   0  0  2  0  0  0  0  0  0  0  0  0
   27.6882   52.7844    8.7152 N   0  0  0  0  0  0  0  0  0  0  0  0
   26.4829   52.4332    8.1095 C   0  0  0  0  0  0  0  0  0  0  0  0
   25.6002   53.1767    7.6414 O   0  0  0  0  0  0  0  0  0  0  0  0
   26.1689   50.9444    7.9841 C   0  0  2  0  0  0  0  0  0  0  0  0
   27.1737   50.2493    7.1396 C   0  0  0  0  0  0  0  0  0  0  0  0
   26.9100   48.7919    6.9859 C   0  0  0  0  0  0  0  0  0  0  0  0
   26.1423   47.9572    7.7618 C   0  0  0  0  0  0  0  0  0  0  0  0
   26.1748   46.6977    7.2657 N   0  0  0  0  0  0  0  0  0  0  0  0
   26.9688   46.7367    6.1702 C   0  0  0  0  0  0  0  0  0  0  0  0
   27.3467   45.7447    5.2899 C   0  0  0  0  0  0  0  0  0  0  0  0
   28.1745   45.9578    4.2090 C   0  0  0  0  0  0  0  0  0  0  0  0
   28.6461   47.2482    4.0082 C   0  0  0  0  0  0  0  0  0  0  0  0
   28.2683   48.2359    4.8879 C   0  0  0  0  0  0  0  0  0  0  0  0
   27.4402   48.0269    5.9713 C   0  0  0  0  0  0  0  0  0  0  0  0
   24.8596   50.8990    7.3200 N   0  0  0  0  0  0  0  0  0  0  0  0
   24.6352   51.4468    6.0312 C   0  0  0  0  0  0  0  0  0  0  0  0
   25.5402   52.0163    5.3517 O   0  0  0  0  0  0  0  0  0  0  0  0
   23.2937   51.4049    5.3522 C   0  0  1  0  0  0  0  0  0  0  0  0
   23.3966   52.2886    4.1725 N   0  0  0  0  0  0  0  0  0  0  0  0
   23.0093   50.0280    4.8185 C   0  0  1  0  0  0  0  0  0  0  0  0
   22.7716   49.0578    5.9357 C   0  0  0  0  0  0  0  0  0  0  0  0
   21.8112   50.0985    4.0956 O   0  0  0  0  0  0  0  0  0  0  0  0
   28.8005   54.3580   10.2462 C   0  0  0  0  0  0  0  0  0  0  0  0
   29.2642   55.5221   10.4640 O   0  0  0  0  0  0  0  0  0  0  0  0
   28.8881   53.4527   11.3470 N   0  0  0  0  0  0  0  0  0  0  0  0
   29.4602   53.8792   12.6042 C   0  0  1  0  0  0  0  0  0  0  0  0
   28.4567   53.6224   13.7074 C   0  0  0  0  0  0  0  0  0  0  0  0
   27.1713   54.3651   13.5011 C   0  0  0  0  0  0  0  0  0  0  0  0
   26.2738   54.0335   14.6510 C   0  0  0  0  0  0  0  0  0  0  0  0
   25.1129   54.5532   14.7091 O   0  0  0  0  0  0  0  0  0  0  0  0
   26.6532   53.1752   15.6705 O   0  0  0  0  0  0  0  0  0  0  0  0
   30.7064   53.1553   12.9241 C   0  0  0  0  0  0  0  0  0  0  0  0
   31.2837   53.4749   14.0203 O   0  0  0  0  0  0  0  0  0  0  0  0
   31.3035   52.1570   12.1304 N   0  0  0  0  0  0  0  0  0  0  0  0
   32.5798   51.5338   12.6052 C   0  0  1  0  0  0  0  0  0  0  0  0
   32.2251   50.0804   12.7429 C   0  0  0  0  0  0  0  0  0  0  0  0
   33.2188   49.1527   13.2346 C   0  0  0  0  0  0  0  0  0  0  0  0
   32.8531   47.7388   13.1971 N   0  0  0  0  0  0  0  0  0  0  0  0
   34.3522   49.3705   13.6913 O   0  0  0  0  0  0  0  0  0  0  0  0
   33.5715   51.7360   11.5305 C   0  0  0  0  0  0  0  0  0  0  0  0
   33.0599   52.1272   10.4090 O   0  0  0  0  0  0  0  0  0  0  0  0
   34.9516   51.5695   11.5563 N   0  0  0  0  0  0  0  0  0  0  0  0
   35.7135   51.8356   10.2955 C   0  0  1  0  0  0  0  0  0  0  0  0
   36.9078   52.6480   10.5895 C   0  0  0  0  0  0  0  0  0  0  0  0
   37.7572   53.0086    9.4101 C   0  0  0  0  0  0  0  0  0  0  0  0
   37.0355   53.8198    8.3749 C   0  0  0  0  0  0  0  0  0  0  0  0
   37.9331   54.1424    7.2058 C   0  0  0  0  0  0  0  0  0  0  0  0
   37.2661   54.9298    6.1830 N   0  0  0  0  0  0  0  0  0  0  0  0
   36.0099   50.4713    9.7076 C   0  0  0  0  0  0  0  0  0  0  0  0
   35.8686   49.5298   10.5590 O   0  0  0  0  0  0  0  0  0  0  0  0
   36.3882   50.2687    8.3690 N   0  0  0  0  0  0  0  0  0  0  0  0
   36.6451   48.8900    7.8372 C   0  0  1  0  0  0  0  0  0  0  0  0
   37.8153   48.3240    8.5885 C   0  0  0  0  0  0  0  0  0  0  0  0
   38.2005   46.9434    8.1587 C   0  0  0  0  0  0  0  0  0  0  0  0
   39.3960   46.4382    8.9677 C   0  0  0  0  0  0  0  0  0  0  0  0
   38.5785   46.8673    6.7133 C   0  0  0  0  0  0  0  0  0  0  0  0
   35.3865   48.1238    7.9965 C   0  0  0  0  0  0  0  0  0  0  0  0
   34.4493   48.6086    8.7322 O   0  0  0  0  0  0  0  0  0  0  0  0
   35.0891   46.8752    7.4074 N   0  0  0  0  0  0  0  0  0  0  0  0
   33.7534   46.3372    7.7692 C   0  0  1  0  0  0  0  0  0  0  0  0
   33.7697   45.7019    9.0990 C   0  0  0  0  0  0  0  0  0  0  0  0
   32.4456   45.1738    9.4873 C   0  0  0  0  0  0  0  0  0  0  0  0
   32.0224   43.9241    9.0860 C   0  0  0  0  0  0  0  0  0  0  0  0
   30.7914   43.4134    9.4757 C   0  0  0  0  0  0  0  0  0  0  0  0
   29.9369   44.1226   10.2761 C   0  0  0  0  0  0  0  0  0  0  0  0
   28.7023   43.6727   10.6973 O   0  0  0  0  0  0  0  0  0  0  0  0
   30.3429   45.3814   10.6907 C   0  0  0  0  0  0  0  0  0  0  0  0
   31.5633   45.8926   10.3071 C   0  0  0  0  0  0  0  0  0  0  0  0
   32.6885   47.3093    7.4885 C   0  0  0  0  0  0  0  0  0  0  0  0
   31.5109   47.2324    7.9622 O   0  0  0  0  0  0  0  0  0  0  0  0
   32.8760   48.4670    6.6285 N   0  0  0  0  0  0  0  0  0  0  0  0
   31.6994   49.3082    6.5136 C   0  0  0  0  0  0  0  0  0  0  0  0
   31.8525   50.4448    5.6224 C   0  0  0  0  0  0  0  0  0  0  0  0
   30.8572   51.2533    5.5342 O   0  0  0  0  0  0  0  0  0  0  0  0
   32.9719   50.7678    4.8297 N   0  0  0  0  0  0  0  0  0  0  0  0
   32.9138   51.9633    4.0047 C   0  0  1  0  0  0  0  0  0  0  0  0
   34.2162   52.6620    3.8422 C   0  0  0  0  0  0  0  0  0  0  0  0
   35.2632   51.7796    3.1882 C   0  0  0  0  0  0  0  0  0  0  0  0
   36.7830   52.7523    3.0328 S   0  0  0  0  0  0  0  0  0  0  0  0
   36.5194   54.1248    1.8619 C   0  0  0  0  0  0  0  0  0  0  0  0
   32.2891   51.6385    2.6741 C   0  0  0  0  0  0  0  0  0  0  0  0
   32.1484   52.5127    1.7973 O   0  0  0  0  0  0  0  0  0  0  0  0
   31.8444   50.3551    2.3687 O   0  0  0  0  0  0  0  0  0  0  0  0
  1  2  1  0
  2  3  1  0
  3  4  1  6
  3  5  1  0
  5  6  1  1
  6  7  1  0
  7  8  2  0
  7  9  1  0
  9 10  1  6
 10 11  1  0
 11 12  2  0
 12 13  1  0
 13 14  1  0
 14 15  2  0
 15 16  1  0
 16 17  2  0
 17 18  1  0
 18 19  2  0
  9 20  1  0
 20 21  1  0
 21 22  2  0
 21 23  1  0
 23 24  1  6
 23 25  1  0
 25 26  1  1
 25 27  1  0
  5 28  1  0
 28 29  2  0
 28 30  1  0
 30 31  1  0
 31 32  1  1
 32 33  1  0
 33 34  1  0
 34 35  2  0
 34 36  1  0
 31 37  1  0
 37 38  2  0
 37 39  1  0
 39 40  1  0
 40 41  1  6
 41 42  1  0
 42 43  1  0
 42 44  2  0
 40 45  1  0
 45 46  2  0
 45 47  1  0
 47 48  1  0
 48 49  1  1
 49 50  1  0
 50 51  1  0
 51 52  1  0
 52 53  1  0
 48 54  1  0
 54 55  2  0
 54 56  1  0
 56 57  1  0
 57 58  1  1
 58 59  1  0
 59 60  1  0
 59 61  1  0
 57 62  1  0
 62 63  2  0
 62 64  1  0
 64 65  1  0
 65 66  1  1
 66 67  1  0
 67 68  2  0
 68 69  1  0
 69 70  2  0
 70 71  1  0
 70 72  1  0
 72 73  2  0
 65 74  1  0
 74 75  2  0
 74 76  1  0
 76 77  1  0
 77 78  1  0
 78 79  2  0
 78 80  1  0
 80 81  1  0
 81 82  1  6
 82 83  1  0
 83 84  1  0
 84 85  1  0
 81 86  1  0
 86 87  2  0
 86 88  1  0
 19 11  1  0
 73 67  1  0
 19 14  1  0
M  CHG  3  24   1  36  -1  53   1
M  END
>  <shape_align_shape_tanimoto>  (3) 
0.16775075009106197

>  <shape_align_color_tanimoto>  (3) 
0.05602743056056033

>  <metric>  (3) 
combo

>  <metric_score>  (3) 
0.112

>  <template_pid>  (3) 
1UEF

>  <template_shape_score>  (3) 
0.168

>  <template_color_score>  (3) 
0.056

>  <template_combo_score>  (3) 
0.112

$$$$
