4E3J_shape_pose
     RDKit          3D

 19 20  0  0  0  0  0  0  0  0999 V2000
   33.9247   62.9542   -1.1199 O   0  0  0  0  0  0  0  0  0  0  0  0
   34.7499   63.3462    0.0989 S   0  0  0  0  0  0  0  0  0  0  0  0
   35.7584   64.3899   -0.2453 O   0  0  0  0  0  0  0  0  0  0  0  0
   35.3431   62.1696    1.0554 N   0  0  0  0  0  0  0  0  0  0  0  0
   34.5584   61.1486    1.6324 C   0  0  0  0  0  0  0  0  0  0  0  0
   35.2304   60.6668    2.9789 B   0  0  0  0  0  0  0  0  0  0  0  0
   34.1738   60.2929    3.9879 O   0  0  0  0  0  0  0  0  0  0  0  0
   36.2462   61.5708    3.5817 O   0  0  0  0  0  0  0  0  0  0  0  0
   33.5562   64.2607    1.2424 C   0  0  0  0  0  0  0  0  0  0  0  0
   33.9279   64.1602    2.4854 C   0  0  0  0  0  0  0  0  0  0  0  0
   33.1188   64.6949    3.5028 C   0  0  0  0  0  0  0  0  0  0  0  0
   31.9181   65.2723    3.0625 C   0  0  0  0  0  0  0  0  0  0  0  0
   30.9274   65.4853    4.1329 C   0  0  0  0  0  0  0  0  0  0  0  0
   31.0925   65.5277    5.4483 N   0  0  0  0  0  0  0  0  0  0  0  0
   29.9400   65.4866    6.0809 N   0  0  0  0  0  0  0  0  0  0  0  0
   29.0169   65.4539    5.1365 N   0  0  0  0  0  0  0  0  0  0  0  0
   29.5454   65.4523    3.9528 N   0  0  0  0  0  0  0  0  0  0  0  0
   31.6202   65.3278    1.7370 C   0  0  0  0  0  0  0  0  0  0  0  0
   32.5177   64.7804    0.7839 C   0  0  0  0  0  0  0  0  0  0  0  0
  1  2  2  0
  2  3  2  0
  2  4  1  0
  4  5  1  0
  5  6  1  0
  6  7  1  0
  6  8  1  0
  2  9  1  0
  9 10  2  0
 10 11  1  0
 11 12  2  0
 12 13  1  0
 13 14  2  0
 14 15  1  0
 15 16  2  0
 16 17  1  0
 12 18  1  0
 18 19  2  0
 19  9  1  0
 17 13  1  0
M  END
>  <shape_align_shape_tanimoto>  (1) 
0.61117666378099811

>  <shape_align_color_tanimoto>  (1) 
0.033919653927961604

>  <metric>  (1) 
shape

>  <metric_score>  (1) 
0.611

>  <template_pid>  (1) 
4E3J

>  <template_shape_score>  (1) 
0.611

>  <template_color_score>  (1) 
0.034

>  <template_combo_score>  (1) 
0.323

$$$$
4E3J_color_pose
     RDKit          3D

 19 20  0  0  0  0  0  0  0  0999 V2000
   31.5574   61.5333    6.3052 O   0  0  0  0  0  0  0  0  0  0  0  0
   32.8743   62.0298    5.7792 S   0  0  0  0  0  0  0  0  0  0  0  0
   33.8190   62.3204    6.8861 O   0  0  0  0  0  0  0  0  0  0  0  0
   33.5340   60.8702    4.6626 N   0  0  0  0  0  0  0  0  0  0  0  0
   34.7623   61.4161    4.1143 C   0  0  0  0  0  0  0  0  0  0  0  0
   35.4186   60.4007    3.0817 B   0  0  0  0  0  0  0  0  0  0  0  0
   36.0987   59.2142    3.6295 O   0  0  0  0  0  0  0  0  0  0  0  0
   35.9547   60.8772    1.8005 O   0  0  0  0  0  0  0  0  0  0  0  0
   32.5353   63.4784    4.8310 C   0  0  0  0  0  0  0  0  0  0  0  0
   33.5488   64.4003    4.7356 C   0  0  0  0  0  0  0  0  0  0  0  0
   33.3291   65.5418    4.0081 C   0  0  0  0  0  0  0  0  0  0  0  0
   32.1043   65.7240    3.4004 C   0  0  0  0  0  0  0  0  0  0  0  0
   31.8418   66.9262    2.6213 C   0  0  0  0  0  0  0  0  0  0  0  0
   32.7214   67.9493    2.4140 N   0  0  0  0  0  0  0  0  0  0  0  0
   32.1367   68.8607    1.6640 N   0  0  0  0  0  0  0  0  0  0  0  0
   30.9112   68.4573    1.3827 N   0  0  0  0  0  0  0  0  0  0  0  0
   30.7160   67.2747    1.9617 N   0  0  0  0  0  0  0  0  0  0  0  0
   31.0976   64.7854    3.5079 C   0  0  0  0  0  0  0  0  0  0  0  0
   31.3009   63.6333    4.2346 C   0  0  0  0  0  0  0  0  0  0  0  0
  1  2  2  0
  2  3  2  0
  2  4  1  0
  4  5  1  0
  5  6  1  0
  6  7  1  0
  6  8  1  0
  2  9  1  0
  9 10  2  0
 10 11  1  0
 11 12  2  0
 12 13  1  0
 13 14  2  0
 14 15  1  0
 15 16  2  0
 16 17  1  0
 12 18  1  0
 18 19  2  0
 19  9  1  0
 17 13  1  0
M  END
>  <shape_align_shape_tanimoto>  (2) 
0.52869599882684715

>  <shape_align_color_tanimoto>  (2) 
0.11319920976348166

>  <metric>  (2) 
color

>  <metric_score>  (2) 
0.113

>  <template_pid>  (2) 
4E3J

>  <template_shape_score>  (2) 
0.529

>  <template_color_score>  (2) 
0.113

>  <template_combo_score>  (2) 
0.321

$$$$
4E3J_combo_pose
     RDKit          3D

 19 20  0  0  0  0  0  0  0  0999 V2000
   33.9247   62.9542   -1.1199 O   0  0  0  0  0  0  0  0  0  0  0  0
   34.7499   63.3462    0.0989 S   0  0  0  0  0  0  0  0  0  0  0  0
   35.7584   64.3899   -0.2453 O   0  0  0  0  0  0  0  0  0  0  0  0
   35.3431   62.1696    1.0554 N   0  0  0  0  0  0  0  0  0  0  0  0
   34.5584   61.1486    1.6324 C   0  0  0  0  0  0  0  0  0  0  0  0
   35.2304   60.6668    2.9789 B   0  0  0  0  0  0  0  0  0  0  0  0
   34.1738   60.2929    3.9879 O   0  0  0  0  0  0  0  0  0  0  0  0
   36.2462   61.5708    3.5817 O   0  0  0  0  0  0  0  0  0  0  0  0
   33.5562   64.2607    1.2424 C   0  0  0  0  0  0  0  0  0  0  0  0
   33.9279   64.1602    2.4854 C   0  0  0  0  0  0  0  0  0  0  0  0
   33.1188   64.6949    3.5028 C   0  0  0  0  0  0  0  0  0  0  0  0
   31.9181   65.2723    3.0625 C   0  0  0  0  0  0  0  0  0  0  0  0
   30.9274   65.4853    4.1329 C   0  0  0  0  0  0  0  0  0  0  0  0
   31.0925   65.5277    5.4483 N   0  0  0  0  0  0  0  0  0  0  0  0
   29.9400   65.4866    6.0809 N   0  0  0  0  0  0  0  0  0  0  0  0
   29.0169   65.4539    5.1365 N   0  0  0  0  0  0  0  0  0  0  0  0
   29.5454   65.4523    3.9528 N   0  0  0  0  0  0  0  0  0  0  0  0
   31.6202   65.3278    1.7370 C   0  0  0  0  0  0  0  0  0  0  0  0
   32.5177   64.7804    0.7839 C   0  0  0  0  0  0  0  0  0  0  0  0
  1  2  2  0
  2  3  2  0
  2  4  1  0
  4  5  1  0
  5  6  1  0
  6  7  1  0
  6  8  1  0
  2  9  1  0
  9 10  2  0
 10 11  1  0
 11 12  2  0
 12 13  1  0
 13 14  2  0
 14 15  1  0
 15 16  2  0
 16 17  1  0
 12 18  1  0
 18 19  2  0
 19  9  1  0
 17 13  1  0
M  END
>  <shape_align_shape_tanimoto>  (3) 
0.61117666378099811

>  <shape_align_color_tanimoto>  (3) 
0.033919653927961604

>  <metric>  (3) 
combo

>  <metric_score>  (3) 
0.323

>  <template_pid>  (3) 
4E3J

>  <template_shape_score>  (3) 
0.611

>  <template_color_score>  (3) 
0.034

>  <template_combo_score>  (3) 
0.323

$$$$
