4EC4_shape_pose
     RDKit          3D

 86 94  0  0  0  0  0  0  0  0999 V2000
   21.9085   -1.7605  -35.3070 C   0  0  0  0  0  0  0  0  0  0  0  0
   20.4080   -1.7574  -35.3386 C   0  0  0  0  0  0  0  0  0  0  0  0
   19.7949   -3.0010  -34.6934 C   0  0  2  0  0  0  0  0  0  0  0  0
   20.2594   -4.1453  -35.4181 N   0  0  0  0  0  0  0  0  0  0  0  0
   21.4711   -4.6569  -34.7864 C   0  0  0  0  0  0  0  0  0  0  0  0
   18.3469   -2.7789  -34.6828 C   0  0  0  0  0  0  0  0  0  0  0  0
   17.9475   -1.7489  -34.0308 O   0  0  0  0  0  0  0  0  0  0  0  0
   17.3718   -3.5909  -35.3239 N   0  0  0  0  0  0  0  0  0  0  0  0
   15.9646   -3.2580  -35.2473 C   0  0  2  0  0  0  0  0  0  0  0  0
   15.1702   -4.2807  -34.5126 C   0  0  0  0  0  0  0  0  0  0  0  0
   15.7187   -5.3563  -34.1711 O   0  0  0  0  0  0  0  0  0  0  0  0
   13.7937   -4.1458  -34.1447 N   0  0  0  0  0  0  0  0  0  0  0  0
   12.8386   -3.3671  -34.9369 C   0  0  1  0  0  0  0  0  0  0  0  0
   13.0911   -3.4108  -36.4117 C   0  0  0  0  0  0  0  0  0  0  0  0
   14.1082   -2.3402  -36.6972 C   0  0  0  0  0  0  0  0  0  0  0  0
   15.4740   -2.9435  -36.6176 C   0  0  2  0  0  0  0  0  0  0  0  0
   15.6493   -4.0466  -37.6249 C   0  0  0  0  0  0  0  0  0  0  0  0
   15.1487   -3.6109  -38.8775 O   0  0  0  0  0  0  0  0  0  0  0  0
   11.5252   -4.0376  -34.6351 C   0  0  0  0  0  0  0  0  0  0  0  0
   11.7548   -5.0582  -33.5788 C   0  0  0  0  0  0  0  0  0  0  0  0
   13.1308   -4.6449  -33.0121 C   0  0  1  0  0  0  0  0  0  0  0  0
   13.7037   -5.7812  -32.2604 C   0  0  0  0  0  0  0  0  0  0  0  0
   14.0030   -6.8156  -32.9117 O   0  0  0  0  0  0  0  0  0  0  0  0
   13.8745   -5.6307  -30.8733 N   0  0  0  0  0  0  0  0  0  0  0  0
   14.3832   -6.5474  -29.9053 C   0  0  1  0  0  0  0  0  0  0  0  0
   15.8646   -6.4960  -29.7169 C   0  0  0  0  0  0  0  0  0  0  0  0
   16.4187   -6.2428  -28.4636 C   0  0  0  0  0  0  0  0  0  0  0  0
   17.7872   -6.2321  -28.2535 C   0  0  0  0  0  0  0  0  0  0  0  0
   18.6549   -6.4794  -29.3111 C   0  0  0  0  0  0  0  0  0  0  0  0
   18.1047   -6.7284  -30.5485 C   0  0  0  0  0  0  0  0  0  0  0  0
   16.7420   -6.7422  -30.7736 C   0  0  0  0  0  0  0  0  0  0  0  0
   13.6758   -6.3622  -28.6247 C   0  0  0  0  0  0  0  0  0  0  0  0
   13.3655   -7.2035  -27.6104 C   0  0  0  0  0  0  0  0  0  0  0  0
   12.6927   -6.4929  -26.6591 N   0  0  0  0  0  0  0  0  0  0  0  0
   12.1854   -7.0548  -25.4564 C   0  0  0  0  0  0  0  0  0  0  0  0
   13.0331   -7.1491  -24.2580 C   0  0  0  0  0  0  0  0  0  0  0  0
   13.6207   -5.9718  -23.6130 C   0  0  0  0  0  0  0  0  0  0  0  0
   14.6072   -5.1306  -24.3061 C   0  0  0  0  0  0  0  0  0  0  0  0
   15.0819   -3.9642  -23.4573 C   0  0  0  0  0  0  0  0  0  0  0  0
   16.1936   -4.0127  -22.6895 C   0  0  0  0  0  0  0  0  0  0  0  0
   16.5425   -2.9068  -21.9513 C   0  0  0  0  0  0  0  0  0  0  0  0
   15.7983   -1.7291  -21.9604 C   0  0  0  0  0  0  0  0  0  0  0  0
   16.3030   -0.6137  -21.1392 C   0  0  0  0  0  0  0  0  0  0  0  0
   17.2001    0.3381  -21.9115 C   0  0  0  0  0  0  0  0  0  0  0  0
   16.5019    0.9898  -23.0557 C   0  0  0  0  0  0  0  0  0  0  0  0
   17.4751    1.9136  -23.7693 C   0  0  0  0  0  0  0  0  0  0  0  0
   18.6121    1.2023  -24.3067 N   0  0  0  0  0  0  0  0  0  0  0  0
   18.6100    0.6837  -25.5538 C   0  0  0  0  0  0  0  0  0  0  0  0
   19.8474    0.0444  -25.7822 C   0  0  0  0  0  0  0  0  0  0  0  0
   20.1221   -0.6177  -27.0536 C   0  0  1  0  0  0  0  0  0  0  0  0
   18.9284   -1.2823  -27.5716 N   0  0  0  0  0  0  0  0  0  0  0  0
   18.2042   -0.5576  -28.5874 C   0  0  0  0  0  0  0  0  0  0  0  0
   18.7141    0.5521  -28.8943 O   0  0  0  0  0  0  0  0  0  0  0  0
   17.0138   -1.1378  -29.1306 C   0  0  2  0  0  0  0  0  0  0  0  0
   17.0865   -2.4840  -29.7955 C   0  0  0  0  0  0  0  0  0  0  0  0
   15.6230   -2.6302  -30.2690 C   0  0  0  0  0  0  0  0  0  0  0  0
   15.0411   -1.2118  -30.2525 C   0  0  2  0  0  0  0  0  0  0  0  0
   14.2336   -0.9187  -31.4633 C   0  0  0  0  0  0  0  0  0  0  0  0
   13.7334    0.4772  -31.4737 C   0  0  0  0  0  0  0  0  0  0  0  0
   14.6665    1.4619  -32.1467 C   0  0  2  0  0  0  0  0  0  0  0  0
   15.1113    1.0393  -33.5103 C   0  0  0  0  0  0  0  0  0  0  0  0
   15.9544    2.0370  -34.0344 O   0  0  0  0  0  0  0  0  0  0  0  0
   15.7762    1.8777  -31.2117 C   0  0  2  0  0  0  0  0  0  0  0  0
   16.4887    2.9998  -31.6899 N   0  0  0  0  0  0  0  0  0  0  0  0
   16.2721    4.3109  -31.1079 C   0  0  0  0  0  0  0  0  0  0  0  0
   15.4213    4.4174  -30.1783 O   0  0  0  0  0  0  0  0  0  0  0  0
   17.0374    5.4809  -31.6006 C   0  0  2  0  0  0  0  0  0  0  0  0
   18.5122    5.2182  -31.7088 C   0  0  0  0  0  0  0  0  0  0  0  0
   19.1836    4.8345  -30.4312 C   0  0  0  0  0  0  0  0  0  0  0  0
   16.6789    6.6688  -30.8951 N   0  0  0  0  0  0  0  0  0  0  0  0
   16.8813    6.6048  -29.4604 C   0  0  0  0  0  0  0  0  0  0  0  0
   16.6572    0.7236  -30.8782 C   0  0  0  0  0  0  0  0  0  0  0  0
   17.8489    0.7369  -31.2648 O   0  0  0  0  0  0  0  0  0  0  0  0
   16.2848   -0.4125  -30.1565 N   0  0  0  0  0  0  0  0  0  0  0  0
   20.8256    0.1848  -28.0726 C   0  0  0  0  0  0  0  0  0  0  0  0
   21.1431   -0.4759  -29.2648 C   0  0  0  0  0  0  0  0  0  0  0  0
   21.8072    0.1555  -30.2920 C   0  0  0  0  0  0  0  0  0  0  0  0
   22.1716    1.4802  -30.1434 C   0  0  0  0  0  0  0  0  0  0  0  0
   21.8652    2.1431  -28.9766 C   0  0  0  0  0  0  0  0  0  0  0  0
   21.1893    1.5103  -27.9234 C   0  0  0  0  0  0  0  0  0  0  0  0
   20.5422    0.2098  -24.6573 N   0  0  0  0  0  0  0  0  0  0  0  0
   19.7840    0.8962  -23.8113 N   0  0  0  0  0  0  0  0  0  0  0  0
   14.6675   -1.6773  -22.7412 C   0  0  0  0  0  0  0  0  0  0  0  0
   14.3313   -2.7900  -23.4711 C   0  0  0  0  0  0  0  0  0  0  0  0
   12.6042   -5.2604  -27.0995 N   0  0  0  0  0  0  0  0  0  0  0  0
   13.1786   -5.1486  -28.2632 N   0  0  0  0  0  0  0  0  0  0  0  0
  1  2  1  0
  3  2  1  6
  3  4  1  0
  4  5  1  0
  3  6  1  0
  6  7  2  0
  6  8  1  0
  9  8  1  6
  9 10  1  0
 10 11  2  0
 10 12  1  0
 12 13  1  0
 13 14  1  6
 14 15  1  0
 15 16  1  0
 16 17  1  6
 17 18  1  0
 13 19  1  0
 19 20  1  0
 20 21  1  0
 21 22  1  6
 22 23  2  0
 22 24  1  0
 25 24  1  6
 25 26  1  0
 26 27  2  0
 27 28  1  0
 28 29  2  0
 29 30  1  0
 30 31  2  0
 25 32  1  0
 32 33  2  0
 33 34  1  0
 34 35  1  0
 35 36  1  0
 36 37  1  0
 37 38  1  0
 38 39  1  0
 39 40  2  0
 40 41  1  0
 41 42  2  0
 42 43  1  0
 43 44  1  0
 44 45  1  0
 45 46  1  0
 46 47  1  0
 47 48  1  0
 48 49  2  0
 49 50  1  0
 50 51  1  6
 51 52  1  0
 52 53  2  0
 54 52  1  6
 54 55  1  0
 55 56  1  0
 57 56  1  6
 57 58  1  0
 58 59  1  0
 59 60  1  0
 60 61  1  6
 61 62  1  0
 60 63  1  0
 63 64  1  6
 64 65  1  0
 65 66  2  0
 65 67  1  0
 67 68  1  1
 68 69  1  0
 67 70  1  0
 70 71  1  0
 63 72  1  0
 72 73  2  0
 72 74  1  0
 50 75  1  0
 75 76  2  0
 76 77  1  0
 77 78  2  0
 78 79  1  0
 79 80  2  0
 49 81  1  0
 81 82  2  0
 42 83  1  0
 83 84  2  0
 34 85  1  0
 85 86  2  0
 16  9  1  0
 31 26  1  0
 86 32  1  0
 21 12  1  0
 84 39  1  0
 82 47  1  0
 74 54  1  0
 80 75  1  0
 74 57  1  0
M  CHG  2   4   1  70   1
M  END
>  <shape_align_shape_tanimoto>  (1) 
0.4155106782502031

>  <shape_align_color_tanimoto>  (1) 
0.01047352682557709

>  <metric>  (1) 
shape

>  <metric_score>  (1) 
0.416

>  <template_pid>  (1) 
4EC4

>  <template_shape_score>  (1) 
0.416

>  <template_color_score>  (1) 
0.010

>  <template_combo_score>  (1) 
0.213

$$$$
4EC4_color_pose
     RDKit          3D

 86 94  0  0  0  0  0  0  0  0999 V2000
   12.6865    5.4865  -33.3318 C   0  0  0  0  0  0  0  0  0  0  0  0
   13.3901    4.2023  -33.7205 C   0  0  0  0  0  0  0  0  0  0  0  0
   12.8403    3.0200  -32.9595 C   0  0  2  0  0  0  0  0  0  0  0  0
   13.0354    3.2511  -31.5486 N   0  0  0  0  0  0  0  0  0  0  0  0
   11.8528    3.6603  -30.8437 C   0  0  0  0  0  0  0  0  0  0  0  0
   13.6398    1.7908  -33.3298 C   0  0  0  0  0  0  0  0  0  0  0  0
   14.1744    1.2086  -32.3675 O   0  0  0  0  0  0  0  0  0  0  0  0
   13.7024    1.4321  -34.6843 N   0  0  0  0  0  0  0  0  0  0  0  0
   14.3370    0.3523  -35.3318 C   0  0  2  0  0  0  0  0  0  0  0  0
   14.6269   -0.8448  -34.4539 C   0  0  0  0  0  0  0  0  0  0  0  0
   14.0000   -0.9871  -33.3931 O   0  0  0  0  0  0  0  0  0  0  0  0
   15.5644   -1.8510  -34.7203 N   0  0  0  0  0  0  0  0  0  0  0  0
   16.9441   -1.8383  -35.2287 C   0  0  1  0  0  0  0  0  0  0  0  0
   17.6377   -0.5682  -35.3637 C   0  0  0  0  0  0  0  0  0  0  0  0
   16.7386    0.6055  -35.1015 C   0  0  0  0  0  0  0  0  0  0  0  0
   15.5664    0.6882  -36.0953 C   0  0  2  0  0  0  0  0  0  0  0  0
   15.5202    2.0536  -36.7417 C   0  0  0  0  0  0  0  0  0  0  0  0
   16.6826    2.3446  -37.4494 O   0  0  0  0  0  0  0  0  0  0  0  0
   17.5959   -2.6381  -34.0816 C   0  0  0  0  0  0  0  0  0  0  0  0
   16.5635   -3.6577  -33.6296 C   0  0  0  0  0  0  0  0  0  0  0  0
   15.3977   -3.3047  -34.5142 C   0  0  1  0  0  0  0  0  0  0  0  0
   14.1523   -3.7967  -34.0432 C   0  0  0  0  0  0  0  0  0  0  0  0
   13.0622   -3.1796  -33.8772 O   0  0  0  0  0  0  0  0  0  0  0  0
   14.0617   -5.2092  -33.6864 N   0  0  0  0  0  0  0  0  0  0  0  0
   12.8032   -5.7134  -33.2117 C   0  0  1  0  0  0  0  0  0  0  0  0
   12.1549   -6.5139  -34.3332 C   0  0  0  0  0  0  0  0  0  0  0  0
   10.8354   -6.3592  -34.6583 C   0  0  0  0  0  0  0  0  0  0  0  0
   10.2716   -7.1095  -35.6771 C   0  0  0  0  0  0  0  0  0  0  0  0
   11.0427   -8.0278  -36.3789 C   0  0  0  0  0  0  0  0  0  0  0  0
   12.3795   -8.1569  -36.0198 C   0  0  0  0  0  0  0  0  0  0  0  0
   12.9664   -7.4275  -35.0151 C   0  0  0  0  0  0  0  0  0  0  0  0
   12.9063   -6.6088  -32.0402 C   0  0  0  0  0  0  0  0  0  0  0  0
   13.6868   -6.5391  -30.9098 C   0  0  0  0  0  0  0  0  0  0  0  0
   13.3955   -7.5837  -30.1230 N   0  0  0  0  0  0  0  0  0  0  0  0
   13.9596   -7.9563  -28.8273 C   0  0  0  0  0  0  0  0  0  0  0  0
   13.0870   -7.2257  -27.8003 C   0  0  0  0  0  0  0  0  0  0  0  0
   13.5164   -7.4948  -26.3936 C   0  0  0  0  0  0  0  0  0  0  0  0
   12.6172   -6.7049  -25.4470 C   0  0  0  0  0  0  0  0  0  0  0  0
   12.7387   -5.2471  -25.7469 C   0  0  0  0  0  0  0  0  0  0  0  0
   11.8915   -4.6018  -26.6186 C   0  0  0  0  0  0  0  0  0  0  0  0
   12.0499   -3.2486  -26.9189 C   0  0  0  0  0  0  0  0  0  0  0  0
   13.1018   -2.6168  -26.2872 C   0  0  0  0  0  0  0  0  0  0  0  0
   13.2920   -1.1556  -26.6454 C   0  0  0  0  0  0  0  0  0  0  0  0
   14.2000   -1.2113  -27.8642 C   0  0  0  0  0  0  0  0  0  0  0  0
   14.5617    0.1193  -28.4435 C   0  0  0  0  0  0  0  0  0  0  0  0
   15.4521   -0.0685  -29.6628 C   0  0  0  0  0  0  0  0  0  0  0  0
   16.6693   -0.7637  -29.2143 N   0  0  0  0  0  0  0  0  0  0  0  0
   17.8141   -0.1646  -28.8118 C   0  0  0  0  0  0  0  0  0  0  0  0
   18.6667   -1.2074  -28.4608 C   0  0  0  0  0  0  0  0  0  0  0  0
   20.0814   -1.0078  -27.9780 C   0  0  1  0  0  0  0  0  0  0  0  0
   20.7659   -0.2735  -29.0543 N   0  0  0  0  0  0  0  0  0  0  0  0
   21.9874   -0.7911  -29.5376 C   0  0  0  0  0  0  0  0  0  0  0  0
   22.3673   -1.8846  -28.9577 O   0  0  0  0  0  0  0  0  0  0  0  0
   22.8322   -0.2703  -30.5680 C   0  0  2  0  0  0  0  0  0  0  0  0
   24.3176   -0.3493  -30.4526 C   0  0  0  0  0  0  0  0  0  0  0  0
   24.7261    0.3400  -31.7748 C   0  0  0  0  0  0  0  0  0  0  0  0
   23.4928    1.1376  -32.2294 C   0  0  2  0  0  0  0  0  0  0  0  0
   23.7906    2.5040  -32.7125 C   0  0  0  0  0  0  0  0  0  0  0  0
   22.5141    3.1514  -33.1084 C   0  0  0  0  0  0  0  0  0  0  0  0
   21.7984    3.9562  -32.0820 C   0  0  2  0  0  0  0  0  0  0  0  0
   22.5214    5.2539  -31.7852 C   0  0  0  0  0  0  0  0  0  0  0  0
   23.7925    5.1189  -31.3038 O   0  0  0  0  0  0  0  0  0  0  0  0
   21.2708    3.2386  -30.9032 C   0  0  2  0  0  0  0  0  0  0  0  0
   21.0489    4.2394  -29.8413 N   0  0  0  0  0  0  0  0  0  0  0  0
   19.7039    4.5159  -29.3871 C   0  0  0  0  0  0  0  0  0  0  0  0
   18.7047    3.9415  -29.8575 O   0  0  0  0  0  0  0  0  0  0  0  0
   19.6267    5.5535  -28.3011 C   0  0  2  0  0  0  0  0  0  0  0  0
   20.3041    4.9384  -27.0909 C   0  0  0  0  0  0  0  0  0  0  0  0
   20.2811    5.9011  -25.9374 C   0  0  0  0  0  0  0  0  0  0  0  0
   18.2071    5.6830  -27.9785 N   0  0  0  0  0  0  0  0  0  0  0  0
   17.4133    6.1222  -29.0938 C   0  0  0  0  0  0  0  0  0  0  0  0
   22.1030    2.1945  -30.3126 C   0  0  0  0  0  0  0  0  0  0  0  0
   22.3400    2.2059  -29.0512 O   0  0  0  0  0  0  0  0  0  0  0  0
   22.7249    1.1125  -30.9580 N   0  0  0  0  0  0  0  0  0  0  0  0
   20.0606   -0.0904  -26.7938 C   0  0  0  0  0  0  0  0  0  0  0  0
   18.8928    0.0831  -26.0738 C   0  0  0  0  0  0  0  0  0  0  0  0
   18.8421    0.9311  -24.9628 C   0  0  0  0  0  0  0  0  0  0  0  0
   19.9593    1.6234  -24.5487 C   0  0  0  0  0  0  0  0  0  0  0  0
   21.1129    1.4402  -25.2765 C   0  0  0  0  0  0  0  0  0  0  0  0
   21.1738    0.6040  -26.3772 C   0  0  0  0  0  0  0  0  0  0  0  0
   18.0212   -2.3727  -28.6591 N   0  0  0  0  0  0  0  0  0  0  0  0
   16.7985   -2.0819  -29.1217 N   0  0  0  0  0  0  0  0  0  0  0  0
   13.9577   -3.2477  -25.4107 C   0  0  0  0  0  0  0  0  0  0  0  0
   13.7953   -4.5894  -25.1170 C   0  0  0  0  0  0  0  0  0  0  0  0
   12.4655   -8.3011  -30.7176 N   0  0  0  0  0  0  0  0  0  0  0  0
   12.1518   -7.7401  -31.8723 N   0  0  0  0  0  0  0  0  0  0  0  0
  1  2  1  0
  3  2  1  6
  3  4  1  0
  4  5  1  0
  3  6  1  0
  6  7  2  0
  6  8  1  0
  9  8  1  1
  9 10  1  0
 10 11  2  0
 10 12  1  0
 12 13  1  0
 13 14  1  1
 14 15  1  0
 15 16  1  0
 16 17  1  1
 17 18  1  0
 13 19  1  0
 19 20  1  0
 20 21  1  0
 21 22  1  1
 22 23  2  0
 22 24  1  0
 25 24  1  6
 25 26  1  0
 26 27  2  0
 27 28  1  0
 28 29  2  0
 29 30  1  0
 30 31  2  0
 25 32  1  0
 32 33  2  0
 33 34  1  0
 34 35  1  0
 35 36  1  0
 36 37  1  0
 37 38  1  0
 38 39  1  0
 39 40  2  0
 40 41  1  0
 41 42  2  0
 42 43  1  0
 43 44  1  0
 44 45  1  0
 45 46  1  0
 46 47  1  0
 47 48  1  0
 48 49  2  0
 49 50  1  0
 50 51  1  6
 51 52  1  0
 52 53  2  0
 54 52  1  1
 54 55  1  0
 55 56  1  0
 57 56  1  1
 57 58  1  0
 58 59  1  0
 59 60  1  0
 60 61  1  1
 61 62  1  0
 60 63  1  0
 63 64  1  1
 64 65  1  0
 65 66  2  0
 65 67  1  0
 67 68  1  1
 68 69  1  0
 67 70  1  0
 70 71  1  0
 63 72  1  0
 72 73  2  0
 72 74  1  0
 50 75  1  0
 75 76  2  0
 76 77  1  0
 77 78  2  0
 78 79  1  0
 79 80  2  0
 49 81  1  0
 81 82  2  0
 42 83  1  0
 83 84  2  0
 34 85  1  0
 85 86  2  0
 16  9  1  0
 31 26  1  0
 86 32  1  0
 21 12  1  0
 84 39  1  0
 82 47  1  0
 74 54  1  0
 80 75  1  0
 74 57  1  0
M  CHG  2   4   1  70   1
M  END
>  <shape_align_shape_tanimoto>  (2) 
0.31985967130548082

>  <shape_align_color_tanimoto>  (2) 
0.073310404723684136

>  <metric>  (2) 
color

>  <metric_score>  (2) 
0.073

>  <template_pid>  (2) 
4EC4

>  <template_shape_score>  (2) 
0.320

>  <template_color_score>  (2) 
0.073

>  <template_combo_score>  (2) 
0.197

$$$$
4EC4_combo_pose
     RDKit          3D

 86 94  0  0  0  0  0  0  0  0999 V2000
   21.9085   -1.7605  -35.3070 C   0  0  0  0  0  0  0  0  0  0  0  0
   20.4080   -1.7574  -35.3386 C   0  0  0  0  0  0  0  0  0  0  0  0
   19.7949   -3.0010  -34.6934 C   0  0  2  0  0  0  0  0  0  0  0  0
   20.2594   -4.1453  -35.4181 N   0  0  0  0  0  0  0  0  0  0  0  0
   21.4711   -4.6569  -34.7864 C   0  0  0  0  0  0  0  0  0  0  0  0
   18.3469   -2.7789  -34.6828 C   0  0  0  0  0  0  0  0  0  0  0  0
   17.9475   -1.7489  -34.0308 O   0  0  0  0  0  0  0  0  0  0  0  0
   17.3718   -3.5909  -35.3239 N   0  0  0  0  0  0  0  0  0  0  0  0
   15.9646   -3.2580  -35.2473 C   0  0  2  0  0  0  0  0  0  0  0  0
   15.1702   -4.2807  -34.5126 C   0  0  0  0  0  0  0  0  0  0  0  0
   15.7187   -5.3563  -34.1711 O   0  0  0  0  0  0  0  0  0  0  0  0
   13.7937   -4.1458  -34.1447 N   0  0  0  0  0  0  0  0  0  0  0  0
   12.8386   -3.3671  -34.9369 C   0  0  1  0  0  0  0  0  0  0  0  0
   13.0911   -3.4108  -36.4117 C   0  0  0  0  0  0  0  0  0  0  0  0
   14.1082   -2.3402  -36.6972 C   0  0  0  0  0  0  0  0  0  0  0  0
   15.4740   -2.9435  -36.6176 C   0  0  2  0  0  0  0  0  0  0  0  0
   15.6493   -4.0466  -37.6249 C   0  0  0  0  0  0  0  0  0  0  0  0
   15.1487   -3.6109  -38.8775 O   0  0  0  0  0  0  0  0  0  0  0  0
   11.5252   -4.0376  -34.6351 C   0  0  0  0  0  0  0  0  0  0  0  0
   11.7548   -5.0582  -33.5788 C   0  0  0  0  0  0  0  0  0  0  0  0
   13.1308   -4.6449  -33.0121 C   0  0  1  0  0  0  0  0  0  0  0  0
   13.7037   -5.7812  -32.2604 C   0  0  0  0  0  0  0  0  0  0  0  0
   14.0030   -6.8156  -32.9117 O   0  0  0  0  0  0  0  0  0  0  0  0
   13.8745   -5.6307  -30.8733 N   0  0  0  0  0  0  0  0  0  0  0  0
   14.3832   -6.5474  -29.9053 C   0  0  1  0  0  0  0  0  0  0  0  0
   15.8646   -6.4960  -29.7169 C   0  0  0  0  0  0  0  0  0  0  0  0
   16.4187   -6.2428  -28.4636 C   0  0  0  0  0  0  0  0  0  0  0  0
   17.7872   -6.2321  -28.2535 C   0  0  0  0  0  0  0  0  0  0  0  0
   18.6549   -6.4794  -29.3111 C   0  0  0  0  0  0  0  0  0  0  0  0
   18.1047   -6.7284  -30.5485 C   0  0  0  0  0  0  0  0  0  0  0  0
   16.7420   -6.7422  -30.7736 C   0  0  0  0  0  0  0  0  0  0  0  0
   13.6758   -6.3622  -28.6247 C   0  0  0  0  0  0  0  0  0  0  0  0
   13.3655   -7.2035  -27.6104 C   0  0  0  0  0  0  0  0  0  0  0  0
   12.6927   -6.4929  -26.6591 N   0  0  0  0  0  0  0  0  0  0  0  0
   12.1854   -7.0548  -25.4564 C   0  0  0  0  0  0  0  0  0  0  0  0
   13.0331   -7.1491  -24.2580 C   0  0  0  0  0  0  0  0  0  0  0  0
   13.6207   -5.9718  -23.6130 C   0  0  0  0  0  0  0  0  0  0  0  0
   14.6072   -5.1306  -24.3061 C   0  0  0  0  0  0  0  0  0  0  0  0
   15.0819   -3.9642  -23.4573 C   0  0  0  0  0  0  0  0  0  0  0  0
   16.1936   -4.0127  -22.6895 C   0  0  0  0  0  0  0  0  0  0  0  0
   16.5425   -2.9068  -21.9513 C   0  0  0  0  0  0  0  0  0  0  0  0
   15.7983   -1.7291  -21.9604 C   0  0  0  0  0  0  0  0  0  0  0  0
   16.3030   -0.6137  -21.1392 C   0  0  0  0  0  0  0  0  0  0  0  0
   17.2001    0.3381  -21.9115 C   0  0  0  0  0  0  0  0  0  0  0  0
   16.5019    0.9898  -23.0557 C   0  0  0  0  0  0  0  0  0  0  0  0
   17.4751    1.9136  -23.7693 C   0  0  0  0  0  0  0  0  0  0  0  0
   18.6121    1.2023  -24.3067 N   0  0  0  0  0  0  0  0  0  0  0  0
   18.6100    0.6837  -25.5538 C   0  0  0  0  0  0  0  0  0  0  0  0
   19.8474    0.0444  -25.7822 C   0  0  0  0  0  0  0  0  0  0  0  0
   20.1221   -0.6177  -27.0536 C   0  0  1  0  0  0  0  0  0  0  0  0
   18.9284   -1.2823  -27.5716 N   0  0  0  0  0  0  0  0  0  0  0  0
   18.2042   -0.5576  -28.5874 C   0  0  0  0  0  0  0  0  0  0  0  0
   18.7141    0.5521  -28.8943 O   0  0  0  0  0  0  0  0  0  0  0  0
   17.0138   -1.1378  -29.1306 C   0  0  2  0  0  0  0  0  0  0  0  0
   17.0865   -2.4840  -29.7955 C   0  0  0  0  0  0  0  0  0  0  0  0
   15.6230   -2.6302  -30.2690 C   0  0  0  0  0  0  0  0  0  0  0  0
   15.0411   -1.2118  -30.2525 C   0  0  2  0  0  0  0  0  0  0  0  0
   14.2336   -0.9187  -31.4633 C   0  0  0  0  0  0  0  0  0  0  0  0
   13.7334    0.4772  -31.4737 C   0  0  0  0  0  0  0  0  0  0  0  0
   14.6665    1.4619  -32.1467 C   0  0  2  0  0  0  0  0  0  0  0  0
   15.1113    1.0393  -33.5103 C   0  0  0  0  0  0  0  0  0  0  0  0
   15.9544    2.0370  -34.0344 O   0  0  0  0  0  0  0  0  0  0  0  0
   15.7762    1.8777  -31.2117 C   0  0  2  0  0  0  0  0  0  0  0  0
   16.4887    2.9998  -31.6899 N   0  0  0  0  0  0  0  0  0  0  0  0
   16.2721    4.3109  -31.1079 C   0  0  0  0  0  0  0  0  0  0  0  0
   15.4213    4.4174  -30.1783 O   0  0  0  0  0  0  0  0  0  0  0  0
   17.0374    5.4809  -31.6006 C   0  0  2  0  0  0  0  0  0  0  0  0
   18.5122    5.2182  -31.7088 C   0  0  0  0  0  0  0  0  0  0  0  0
   19.1836    4.8345  -30.4312 C   0  0  0  0  0  0  0  0  0  0  0  0
   16.6789    6.6688  -30.8951 N   0  0  0  0  0  0  0  0  0  0  0  0
   16.8813    6.6048  -29.4604 C   0  0  0  0  0  0  0  0  0  0  0  0
   16.6572    0.7236  -30.8782 C   0  0  0  0  0  0  0  0  0  0  0  0
   17.8489    0.7369  -31.2648 O   0  0  0  0  0  0  0  0  0  0  0  0
   16.2848   -0.4125  -30.1565 N   0  0  0  0  0  0  0  0  0  0  0  0
   20.8256    0.1848  -28.0726 C   0  0  0  0  0  0  0  0  0  0  0  0
   21.1431   -0.4759  -29.2648 C   0  0  0  0  0  0  0  0  0  0  0  0
   21.8072    0.1555  -30.2920 C   0  0  0  0  0  0  0  0  0  0  0  0
   22.1716    1.4802  -30.1434 C   0  0  0  0  0  0  0  0  0  0  0  0
   21.8652    2.1431  -28.9766 C   0  0  0  0  0  0  0  0  0  0  0  0
   21.1893    1.5103  -27.9234 C   0  0  0  0  0  0  0  0  0  0  0  0
   20.5422    0.2098  -24.6573 N   0  0  0  0  0  0  0  0  0  0  0  0
   19.7840    0.8962  -23.8113 N   0  0  0  0  0  0  0  0  0  0  0  0
   14.6675   -1.6773  -22.7412 C   0  0  0  0  0  0  0  0  0  0  0  0
   14.3313   -2.7900  -23.4711 C   0  0  0  0  0  0  0  0  0  0  0  0
   12.6042   -5.2604  -27.0995 N   0  0  0  0  0  0  0  0  0  0  0  0
   13.1786   -5.1486  -28.2632 N   0  0  0  0  0  0  0  0  0  0  0  0
  1  2  1  0
  3  2  1  6
  3  4  1  0
  4  5  1  0
  3  6  1  0
  6  7  2  0
  6  8  1  0
  9  8  1  6
  9 10  1  0
 10 11  2  0
 10 12  1  0
 12 13  1  0
 13 14  1  6
 14 15  1  0
 15 16  1  0
 16 17  1  6
 17 18  1  0
 13 19  1  0
 19 20  1  0
 20 21  1  0
 21 22  1  6
 22 23  2  0
 22 24  1  0
 25 24  1  6
 25 26  1  0
 26 27  2  0
 27 28  1  0
 28 29  2  0
 29 30  1  0
 30 31  2  0
 25 32  1  0
 32 33  2  0
 33 34  1  0
 34 35  1  0
 35 36  1  0
 36 37  1  0
 37 38  1  0
 38 39  1  0
 39 40  2  0
 40 41  1  0
 41 42  2  0
 42 43  1  0
 43 44  1  0
 44 45  1  0
 45 46  1  0
 46 47  1  0
 47 48  1  0
 48 49  2  0
 49 50  1  0
 50 51  1  6
 51 52  1  0
 52 53  2  0
 54 52  1  6
 54 55  1  0
 55 56  1  0
 57 56  1  6
 57 58  1  0
 58 59  1  0
 59 60  1  0
 60 61  1  6
 61 62  1  0
 60 63  1  0
 63 64  1  6
 64 65  1  0
 65 66  2  0
 65 67  1  0
 67 68  1  1
 68 69  1  0
 67 70  1  0
 70 71  1  0
 63 72  1  0
 72 73  2  0
 72 74  1  0
 50 75  1  0
 75 76  2  0
 76 77  1  0
 77 78  2  0
 78 79  1  0
 79 80  2  0
 49 81  1  0
 81 82  2  0
 42 83  1  0
 83 84  2  0
 34 85  1  0
 85 86  2  0
 16  9  1  0
 31 26  1  0
 86 32  1  0
 21 12  1  0
 84 39  1  0
 82 47  1  0
 74 54  1  0
 80 75  1  0
 74 57  1  0
M  CHG  2   4   1  70   1
M  END
>  <shape_align_shape_tanimoto>  (3) 
0.4155106782502031

>  <shape_align_color_tanimoto>  (3) 
0.01047352682557709

>  <metric>  (3) 
combo

>  <metric_score>  (3) 
0.213

>  <template_pid>  (3) 
4EC4

>  <template_shape_score>  (3) 
0.416

>  <template_color_score>  (3) 
0.010

>  <template_combo_score>  (3) 
0.213

$$$$
