4R1V_shape_pose
     RDKit          3D

 37 41  0  0  0  0  0  0  0  0999 V2000
  -42.2608  -59.7958  -11.7297 C   0  0  0  0  0  0  0  0  0  0  0  0
  -42.7536  -58.5434  -12.2142 N   0  0  1  0  0  0  0  0  0  0  0  0
  -42.7567  -58.4484  -13.6570 C   0  0  0  0  0  0  0  0  0  0  0  0
  -43.9811  -57.7990  -14.2039 C   0  0  0  0  0  0  0  0  0  0  0  0
  -44.4394  -56.6089  -13.3954 C   0  0  2  0  0  0  0  0  0  0  0  0
  -43.4734  -55.4633  -13.5460 C   0  0  0  0  0  0  0  0  0  0  0  0
  -43.9474  -54.3833  -12.7751 O   0  0  0  0  0  0  0  0  0  0  0  0
  -43.3197  -53.1550  -12.6676 C   0  0  0  0  0  0  0  0  0  0  0  0
  -43.8672  -52.1606  -11.8852 C   0  0  0  0  0  0  0  0  0  0  0  0
  -43.2998  -50.9488  -11.7451 N   0  0  0  0  0  0  0  0  0  0  0  0
  -42.1465  -50.6798  -12.3907 C   0  0  0  0  0  0  0  0  0  0  0  0
  -41.5016  -49.3789  -12.2646 C   0  0  0  0  0  0  0  0  0  0  0  0
  -40.3217  -49.1586  -12.9415 C   0  0  0  0  0  0  0  0  0  0  0  0
  -39.6776  -47.9544  -12.8537 C   0  0  0  0  0  0  0  0  0  0  0  0
  -40.2723  -46.9859  -12.0572 C   0  0  0  0  0  0  0  0  0  0  0  0
  -41.4463  -47.1910  -11.3776 C   0  0  0  0  0  0  0  0  0  0  0  0
  -42.0869  -46.1607  -10.5221 C   0  0  0  0  0  0  0  0  0  0  0  0
  -41.5625  -46.3430   -9.1685 N   0  0  0  0  0  0  0  0  0  0  0  0
  -42.2200  -47.2161   -8.2655 N   0  0  0  0  0  0  0  0  0  0  0  0
  -41.7458  -47.4257   -6.9419 C   0  0  0  0  0  0  0  0  0  0  0  0
  -42.4787  -48.3469   -6.0593 C   0  0  0  0  0  0  0  0  0  0  0  0
  -42.0700  -48.6011   -4.7627 C   0  0  0  0  0  0  0  0  0  0  0  0
  -42.7672  -49.4715   -3.9333 C   0  0  0  0  0  0  0  0  0  0  0  0
  -43.8963  -50.1223   -4.3596 C   0  0  0  0  0  0  0  0  0  0  0  0
  -44.3159  -49.8796   -5.6479 C   0  0  0  0  0  0  0  0  0  0  0  0
  -45.4943  -50.5473   -6.1187 C   0  0  0  0  0  0  0  0  0  0  0  0
  -46.4357  -51.0837   -6.5150 N   0  0  0  0  0  0  0  0  0  0  0  0
  -43.6117  -49.0027   -6.4806 C   0  0  0  0  0  0  0  0  0  0  0  0
  -40.6704  -46.7816   -6.5757 C   0  0  0  0  0  0  0  0  0  0  0  0
  -39.8877  -45.8489   -7.4016 C   0  0  0  0  0  0  0  0  0  0  0  0
  -40.4072  -45.6560   -8.7594 C   0  0  0  0  0  0  0  0  0  0  0  0
  -39.7898  -44.8708   -9.5190 O   0  0  0  0  0  0  0  0  0  0  0  0
  -42.0831  -48.4097  -11.4763 C   0  0  0  0  0  0  0  0  0  0  0  0
  -41.6168  -51.6487  -13.1504 N   0  0  0  0  0  0  0  0  0  0  0  0
  -42.1389  -52.8674  -13.3234 C   0  0  0  0  0  0  0  0  0  0  0  0
  -44.5869  -56.9394  -11.9500 C   0  0  0  0  0  0  0  0  0  0  0  0
  -44.0659  -58.3209  -11.6489 C   0  0  0  0  0  0  0  0  0  0  0  0
  2  1  1  6
  2  3  1  0
  3  4  1  0
  4  5  1  0
  5  6  1  1
  6  7  1  0
  7  8  1  0
  8  9  2  0
  9 10  1  0
 10 11  2  0
 11 12  1  0
 12 13  2  0
 13 14  1  0
 14 15  2  0
 15 16  1  0
 16 17  1  0
 17 18  1  0
 18 19  1  0
 19 20  1  0
 20 21  1  0
 21 22  2  0
 22 23  1  0
 23 24  2  0
 24 25  1  0
 25 26  1  0
 26 27  3  0
 25 28  2  0
 20 29  2  0
 29 30  1  0
 30 31  1  0
 31 32  2  0
 16 33  2  0
 11 34  1  0
 34 35  2  0
  5 36  1  0
 36 37  1  0
 37  2  1  0
 35  8  1  0
 33 12  1  0
 31 18  1  0
 28 21  1  0
M  CHG  1   2   1
M  END
>  <shape_align_shape_tanimoto>  (1) 
0.62921020854907728

>  <shape_align_color_tanimoto>  (1) 
0.029502888032832943

>  <metric>  (1) 
shape

>  <metric_score>  (1) 
0.629

>  <template_pid>  (1) 
4R1V

>  <template_shape_score>  (1) 
0.629

>  <template_color_score>  (1) 
0.030

>  <template_combo_score>  (1) 
0.329

$$$$
4R1V_color_pose
     RDKit          3D

 37 41  0  0  0  0  0  0  0  0999 V2000
  -39.6476  -58.9907  -10.5799 C   0  0  0  0  0  0  0  0  0  0  0  0
  -40.5337  -60.1334  -10.3679 N   0  0  1  0  0  0  0  0  0  0  0  0
  -41.7582  -59.7353   -9.7706 C   0  0  0  0  0  0  0  0  0  0  0  0
  -42.9169  -59.4950  -10.6621 C   0  0  0  0  0  0  0  0  0  0  0  0
  -42.4134  -59.3174  -12.1048 C   0  0  2  0  0  0  0  0  0  0  0  0
  -43.5656  -59.1205  -13.0417 C   0  0  0  0  0  0  0  0  0  0  0  0
  -44.3017  -58.0016  -12.7054 O   0  0  0  0  0  0  0  0  0  0  0  0
  -43.9194  -56.7109  -12.7133 C   0  0  0  0  0  0  0  0  0  0  0  0
  -42.7172  -56.1791  -13.0817 C   0  0  0  0  0  0  0  0  0  0  0  0
  -42.4588  -54.8434  -13.0375 N   0  0  0  0  0  0  0  0  0  0  0  0
  -43.3931  -53.9734  -12.6226 C   0  0  0  0  0  0  0  0  0  0  0  0
  -43.0996  -52.5583  -12.5828 C   0  0  0  0  0  0  0  0  0  0  0  0
  -41.8545  -52.0911  -12.9720 C   0  0  0  0  0  0  0  0  0  0  0  0
  -41.5116  -50.7589  -12.9579 C   0  0  0  0  0  0  0  0  0  0  0  0
  -42.4635  -49.8603  -12.5339 C   0  0  0  0  0  0  0  0  0  0  0  0
  -43.7387  -50.2648  -12.1279 C   0  0  0  0  0  0  0  0  0  0  0  0
  -44.6716  -49.2127  -11.6964 C   0  0  0  0  0  0  0  0  0  0  0  0
  -44.5020  -49.0102  -10.2716 N   0  0  0  0  0  0  0  0  0  0  0  0
  -43.5599  -48.0726   -9.7743 N   0  0  0  0  0  0  0  0  0  0  0  0
  -43.3656  -47.8488   -8.3911 C   0  0  0  0  0  0  0  0  0  0  0  0
  -42.3705  -46.8605   -7.9490 C   0  0  0  0  0  0  0  0  0  0  0  0
  -42.1316  -46.5945   -6.6164 C   0  0  0  0  0  0  0  0  0  0  0  0
  -41.1871  -45.6567   -6.2017 C   0  0  0  0  0  0  0  0  0  0  0  0
  -40.4479  -44.9518   -7.1244 C   0  0  0  0  0  0  0  0  0  0  0  0
  -40.6688  -45.1998   -8.4458 C   0  0  0  0  0  0  0  0  0  0  0  0
  -39.9042  -44.4709   -9.4089 C   0  0  0  0  0  0  0  0  0  0  0  0
  -39.2943  -43.8721  -10.1879 N   0  0  0  0  0  0  0  0  0  0  0  0
  -41.6163  -46.1406   -8.8581 C   0  0  0  0  0  0  0  0  0  0  0  0
  -44.0999  -48.5508   -7.5517 C   0  0  0  0  0  0  0  0  0  0  0  0
  -45.1089  -49.5512   -7.9127 C   0  0  0  0  0  0  0  0  0  0  0  0
  -45.2884  -49.7610   -9.3626 C   0  0  0  0  0  0  0  0  0  0  0  0
  -46.1359  -50.6012   -9.7312 O   0  0  0  0  0  0  0  0  0  0  0  0
  -44.0342  -51.6094  -12.1598 C   0  0  0  0  0  0  0  0  0  0  0  0
  -44.5819  -54.4508  -12.2544 N   0  0  0  0  0  0  0  0  0  0  0  0
  -44.8816  -55.7690  -12.2819 C   0  0  0  0  0  0  0  0  0  0  0  0
  -41.8043  -60.6980  -12.4034 C   0  0  0  0  0  0  0  0  0  0  0  0
  -40.5988  -60.9410  -11.5435 C   0  0  0  0  0  0  0  0  0  0  0  0
  2  1  1  6
  2  3  1  0
  3  4  1  0
  4  5  1  0
  5  6  1  6
  6  7  1  0
  7  8  1  0
  8  9  2  0
  9 10  1  0
 10 11  2  0
 11 12  1  0
 12 13  2  0
 13 14  1  0
 14 15  2  0
 15 16  1  0
 16 17  1  0
 17 18  1  0
 18 19  1  0
 19 20  1  0
 20 21  1  0
 21 22  2  0
 22 23  1  0
 23 24  2  0
 24 25  1  0
 25 26  1  0
 26 27  3  0
 25 28  2  0
 20 29  2  0
 29 30  1  0
 30 31  1  0
 31 32  2  0
 16 33  2  0
 11 34  1  0
 34 35  2  0
  5 36  1  0
 36 37  1  0
 37  2  1  0
 35  8  1  0
 33 12  1  0
 31 18  1  0
 28 21  1  0
M  CHG  1   2   1
M  END
>  <shape_align_shape_tanimoto>  (2) 
0.41517338394787434

>  <shape_align_color_tanimoto>  (2) 
0.07300898224458377

>  <metric>  (2) 
color

>  <metric_score>  (2) 
0.073

>  <template_pid>  (2) 
4R1V

>  <template_shape_score>  (2) 
0.415

>  <template_color_score>  (2) 
0.073

>  <template_combo_score>  (2) 
0.244

$$$$
4R1V_combo_pose
     RDKit          3D

 37 41  0  0  0  0  0  0  0  0999 V2000
  -42.2608  -59.7958  -11.7297 C   0  0  0  0  0  0  0  0  0  0  0  0
  -42.7536  -58.5434  -12.2142 N   0  0  1  0  0  0  0  0  0  0  0  0
  -42.7567  -58.4484  -13.6570 C   0  0  0  0  0  0  0  0  0  0  0  0
  -43.9811  -57.7990  -14.2039 C   0  0  0  0  0  0  0  0  0  0  0  0
  -44.4394  -56.6089  -13.3954 C   0  0  2  0  0  0  0  0  0  0  0  0
  -43.4734  -55.4633  -13.5460 C   0  0  0  0  0  0  0  0  0  0  0  0
  -43.9474  -54.3833  -12.7751 O   0  0  0  0  0  0  0  0  0  0  0  0
  -43.3197  -53.1550  -12.6676 C   0  0  0  0  0  0  0  0  0  0  0  0
  -43.8672  -52.1606  -11.8852 C   0  0  0  0  0  0  0  0  0  0  0  0
  -43.2998  -50.9488  -11.7451 N   0  0  0  0  0  0  0  0  0  0  0  0
  -42.1465  -50.6798  -12.3907 C   0  0  0  0  0  0  0  0  0  0  0  0
  -41.5016  -49.3789  -12.2646 C   0  0  0  0  0  0  0  0  0  0  0  0
  -40.3217  -49.1586  -12.9415 C   0  0  0  0  0  0  0  0  0  0  0  0
  -39.6776  -47.9544  -12.8537 C   0  0  0  0  0  0  0  0  0  0  0  0
  -40.2723  -46.9859  -12.0572 C   0  0  0  0  0  0  0  0  0  0  0  0
  -41.4463  -47.1910  -11.3776 C   0  0  0  0  0  0  0  0  0  0  0  0
  -42.0869  -46.1607  -10.5221 C   0  0  0  0  0  0  0  0  0  0  0  0
  -41.5625  -46.3430   -9.1685 N   0  0  0  0  0  0  0  0  0  0  0  0
  -42.2200  -47.2161   -8.2655 N   0  0  0  0  0  0  0  0  0  0  0  0
  -41.7458  -47.4257   -6.9419 C   0  0  0  0  0  0  0  0  0  0  0  0
  -42.4787  -48.3469   -6.0593 C   0  0  0  0  0  0  0  0  0  0  0  0
  -42.0700  -48.6011   -4.7627 C   0  0  0  0  0  0  0  0  0  0  0  0
  -42.7672  -49.4715   -3.9333 C   0  0  0  0  0  0  0  0  0  0  0  0
  -43.8963  -50.1223   -4.3596 C   0  0  0  0  0  0  0  0  0  0  0  0
  -44.3159  -49.8796   -5.6479 C   0  0  0  0  0  0  0  0  0  0  0  0
  -45.4943  -50.5473   -6.1187 C   0  0  0  0  0  0  0  0  0  0  0  0
  -46.4357  -51.0837   -6.5150 N   0  0  0  0  0  0  0  0  0  0  0  0
  -43.6117  -49.0027   -6.4806 C   0  0  0  0  0  0  0  0  0  0  0  0
  -40.6704  -46.7816   -6.5757 C   0  0  0  0  0  0  0  0  0  0  0  0
  -39.8877  -45.8489   -7.4016 C   0  0  0  0  0  0  0  0  0  0  0  0
  -40.4072  -45.6560   -8.7594 C   0  0  0  0  0  0  0  0  0  0  0  0
  -39.7898  -44.8708   -9.5190 O   0  0  0  0  0  0  0  0  0  0  0  0
  -42.0831  -48.4097  -11.4763 C   0  0  0  0  0  0  0  0  0  0  0  0
  -41.6168  -51.6487  -13.1504 N   0  0  0  0  0  0  0  0  0  0  0  0
  -42.1389  -52.8674  -13.3234 C   0  0  0  0  0  0  0  0  0  0  0  0
  -44.5869  -56.9394  -11.9500 C   0  0  0  0  0  0  0  0  0  0  0  0
  -44.0659  -58.3209  -11.6489 C   0  0  0  0  0  0  0  0  0  0  0  0
  2  1  1  6
  2  3  1  0
  3  4  1  0
  4  5  1  0
  5  6  1  1
  6  7  1  0
  7  8  1  0
  8  9  2  0
  9 10  1  0
 10 11  2  0
 11 12  1  0
 12 13  2  0
 13 14  1  0
 14 15  2  0
 15 16  1  0
 16 17  1  0
 17 18  1  0
 18 19  1  0
 19 20  1  0
 20 21  1  0
 21 22  2  0
 22 23  1  0
 23 24  2  0
 24 25  1  0
 25 26  1  0
 26 27  3  0
 25 28  2  0
 20 29  2  0
 29 30  1  0
 30 31  1  0
 31 32  2  0
 16 33  2  0
 11 34  1  0
 34 35  2  0
  5 36  1  0
 36 37  1  0
 37  2  1  0
 35  8  1  0
 33 12  1  0
 31 18  1  0
 28 21  1  0
M  CHG  1   2   1
M  END
>  <shape_align_shape_tanimoto>  (3) 
0.62921020854907728

>  <shape_align_color_tanimoto>  (3) 
0.029502888032832943

>  <metric>  (3) 
combo

>  <metric_score>  (3) 
0.329

>  <template_pid>  (3) 
4R1V

>  <template_shape_score>  (3) 
0.629

>  <template_color_score>  (3) 
0.030

>  <template_combo_score>  (3) 
0.329

$$$$
