5D10_shape_pose
     RDKit          3D

 32 35  0  0  0  0  0  0  0  0999 V2000
  -11.0909   -7.7005  -37.6023 C   0  0  0  0  0  0  0  0  0  0  0  0
  -10.3061   -8.1539  -36.4076 C   0  0  0  0  0  0  0  0  0  0  0  0
   -9.5094   -9.3806  -36.7401 C   0  0  0  0  0  0  0  0  0  0  0  0
   -9.5673   -9.8872  -37.9108 O   0  0  0  0  0  0  0  0  0  0  0  0
   -8.6779  -10.0000  -35.7647 N   0  0  0  0  0  0  0  0  0  0  0  0
   -7.9605  -11.1582  -36.1872 C   0  0  0  0  0  0  0  0  0  0  0  0
   -8.4353  -12.4402  -36.0687 C   0  0  0  0  0  0  0  0  0  0  0  0
   -7.6760  -13.5259  -36.5222 C   0  0  0  0  0  0  0  0  0  0  0  0
   -6.4445  -13.3301  -37.0936 C   0  0  0  0  0  0  0  0  0  0  0  0
   -5.6087  -14.2925  -37.5773 O   0  0  0  0  0  0  0  0  0  0  0  0
   -5.7106  -15.6415  -37.5920 C   0  0  0  0  0  0  0  0  0  0  0  0
   -4.6886  -16.3225  -38.2028 N   0  0  0  0  0  0  0  0  0  0  0  0
   -4.6691  -17.6524  -38.2854 C   0  0  0  0  0  0  0  0  0  0  0  0
   -3.5613  -18.2565  -38.9665 N   0  0  0  0  0  0  0  0  0  0  0  0
   -2.5740  -17.3799  -39.4906 C   0  0  0  0  0  0  0  0  0  0  0  0
   -2.8774  -16.4859  -40.5250 C   0  0  0  0  0  0  0  0  0  0  0  0
   -1.6747  -15.8041  -40.7668 C   0  0  0  0  0  0  0  0  0  0  0  0
   -1.5687  -14.7420  -41.8013 C   0  0  0  0  0  0  0  0  0  0  0  0
   -0.7419  -16.2788  -39.9229 N   0  0  0  0  0  0  0  0  0  0  0  0
   -1.2803  -17.2230  -39.1585 N   0  0  0  0  0  0  0  0  0  0  0  0
   -5.6829  -18.4010  -37.7546 C   0  0  0  0  0  0  0  0  0  0  0  0
   -6.7278  -17.7462  -37.1334 C   0  0  0  0  0  0  0  0  0  0  0  0
   -7.8034  -18.5000  -36.5840 N   0  0  0  0  0  0  0  0  0  0  0  0
   -7.8933  -19.8965  -36.8667 C   0  0  0  0  0  0  0  0  0  0  0  0
   -8.6314  -20.7212  -36.1249 C   0  0  0  0  0  0  0  0  0  0  0  0
   -9.3711  -20.2228  -35.0006 N   0  0  0  0  0  0  0  0  0  0  0  0
  -10.3406  -21.1081  -34.4152 C   0  0  0  0  0  0  0  0  0  0  0  0
   -9.0758  -18.8884  -34.5667 C   0  0  0  0  0  0  0  0  0  0  0  0
   -8.8276  -17.9237  -35.7342 C   0  0  0  0  0  0  0  0  0  0  0  0
   -6.6935  -16.3871  -37.0800 N   0  0  0  0  0  0  0  0  0  0  0  0
   -5.9833  -12.0069  -37.2003 C   0  0  0  0  0  0  0  0  0  0  0  0
   -6.7270  -10.9417  -36.7550 C   0  0  0  0  0  0  0  0  0  0  0  0
  1  2  1  0
  2  3  1  0
  3  4  2  0
  3  5  1  0
  5  6  1  0
  6  7  2  0
  7  8  1  0
  8  9  2  0
  9 10  1  0
 10 11  1  0
 11 12  2  0
 12 13  1  0
 13 14  1  0
 14 15  1  0
 15 16  1  0
 16 17  2  0
 17 18  1  0
 17 19  1  0
 19 20  1  0
 13 21  2  0
 21 22  1  0
 22 23  1  0
 23 24  1  0
 24 25  2  0
 25 26  1  0
 26 27  1  0
 26 28  1  0
 28 29  1  0
 22 30  2  0
  9 31  1  0
 31 32  2  0
 32  6  1  0
 30 11  1  0
 20 15  2  0
 29 23  1  0
M  END
>  <shape_align_shape_tanimoto>  (1) 
0.62701645596411348

>  <shape_align_color_tanimoto>  (1) 
0.058071409434428151

>  <metric>  (1) 
shape

>  <metric_score>  (1) 
0.627

>  <template_pid>  (1) 
5D10

>  <template_shape_score>  (1) 
0.627

>  <template_color_score>  (1) 
0.058

>  <template_combo_score>  (1) 
0.343

$$$$
5D10_color_pose
     RDKit          3D

 32 35  0  0  0  0  0  0  0  0999 V2000
  -10.8405   -9.8440  -35.2916 C   0  0  0  0  0  0  0  0  0  0  0  0
   -9.5406   -9.3998  -35.9136 C   0  0  0  0  0  0  0  0  0  0  0  0
   -8.7339  -10.5796  -36.2362 C   0  0  0  0  0  0  0  0  0  0  0  0
   -9.2087  -11.7376  -35.9797 O   0  0  0  0  0  0  0  0  0  0  0  0
   -7.4429  -10.5490  -36.8220 N   0  0  0  0  0  0  0  0  0  0  0  0
   -6.8143  -11.8073  -37.0610 C   0  0  0  0  0  0  0  0  0  0  0  0
   -6.0257  -12.4119  -36.0775 C   0  0  0  0  0  0  0  0  0  0  0  0
   -5.4410  -13.6511  -36.3581 C   0  0  0  0  0  0  0  0  0  0  0  0
   -5.6425  -14.2538  -37.5777 C   0  0  0  0  0  0  0  0  0  0  0  0
   -5.0901  -15.4913  -37.9242 O   0  0  0  0  0  0  0  0  0  0  0  0
   -5.8159  -16.6244  -37.5836 C   0  0  0  0  0  0  0  0  0  0  0  0
   -5.4271  -17.8829  -37.8795 N   0  0  0  0  0  0  0  0  0  0  0  0
   -6.1671  -18.9491  -37.5249 C   0  0  0  0  0  0  0  0  0  0  0  0
   -5.8125  -20.2941  -37.8124 N   0  0  0  0  0  0  0  0  0  0  0  0
   -6.3178  -20.8161  -39.0547 C   0  0  0  0  0  0  0  0  0  0  0  0
   -7.5876  -21.3305  -39.2050 C   0  0  0  0  0  0  0  0  0  0  0  0
   -7.6864  -21.7210  -40.5156 C   0  0  0  0  0  0  0  0  0  0  0  0
   -8.8728  -22.3336  -41.1660 C   0  0  0  0  0  0  0  0  0  0  0  0
   -6.5139  -21.4509  -41.1356 N   0  0  0  0  0  0  0  0  0  0  0  0
   -5.6851  -20.9008  -40.2456 N   0  0  0  0  0  0  0  0  0  0  0  0
   -7.3751  -18.7882  -36.8312 C   0  0  0  0  0  0  0  0  0  0  0  0
   -7.7532  -17.5002  -36.5393 C   0  0  0  0  0  0  0  0  0  0  0  0
   -8.9548  -17.1882  -35.8514 N   0  0  0  0  0  0  0  0  0  0  0  0
   -9.9385  -18.1935  -35.6400 C   0  0  0  0  0  0  0  0  0  0  0  0
  -11.2112  -17.7936  -35.8541 C   0  0  0  0  0  0  0  0  0  0  0  0
  -11.3611  -16.4427  -36.2548 N   0  0  0  0  0  0  0  0  0  0  0  0
  -12.4291  -16.0900  -37.2092 C   0  0  0  0  0  0  0  0  0  0  0  0
  -10.5370  -15.3446  -35.8133 C   0  0  0  0  0  0  0  0  0  0  0  0
   -9.2256  -15.8610  -35.3333 C   0  0  0  0  0  0  0  0  0  0  0  0
   -6.9746  -16.4992  -36.9206 N   0  0  0  0  0  0  0  0  0  0  0  0
   -6.4326  -13.6440  -38.5581 C   0  0  0  0  0  0  0  0  0  0  0  0
   -7.0108  -12.4227  -38.2860 C   0  0  0  0  0  0  0  0  0  0  0  0
  1  2  1  0
  2  3  1  0
  3  4  2  0
  3  5  1  0
  5  6  1  0
  6  7  2  0
  7  8  1  0
  8  9  2  0
  9 10  1  0
 10 11  1  0
 11 12  2  0
 12 13  1  0
 13 14  1  0
 14 15  1  0
 15 16  1  0
 16 17  2  0
 17 18  1  0
 17 19  1  0
 19 20  1  0
 13 21  2  0
 21 22  1  0
 22 23  1  0
 23 24  1  0
 24 25  2  0
 25 26  1  0
 26 27  1  0
 26 28  1  0
 28 29  1  0
 22 30  2  0
  9 31  1  0
 31 32  2  0
 32  6  1  0
 30 11  1  0
 20 15  2  0
 29 23  1  0
M  END
>  <shape_align_shape_tanimoto>  (2) 
0.41975630111401413

>  <shape_align_color_tanimoto>  (2) 
0.11240547459803431

>  <metric>  (2) 
color

>  <metric_score>  (2) 
0.112

>  <template_pid>  (2) 
5D10

>  <template_shape_score>  (2) 
0.420

>  <template_color_score>  (2) 
0.112

>  <template_combo_score>  (2) 
0.266

$$$$
5D10_combo_pose
     RDKit          3D

 32 35  0  0  0  0  0  0  0  0999 V2000
  -11.0378   -7.9143  -37.0944 C   0  0  0  0  0  0  0  0  0  0  0  0
  -10.0858   -8.5449  -36.0999 C   0  0  0  0  0  0  0  0  0  0  0  0
   -9.3421   -9.6887  -36.7148 C   0  0  0  0  0  0  0  0  0  0  0  0
   -9.5339  -10.0288  -37.9235 O   0  0  0  0  0  0  0  0  0  0  0  0
   -8.4167  -10.3782  -35.8999 N   0  0  0  0  0  0  0  0  0  0  0  0
   -7.6367  -11.4844  -36.3443 C   0  0  0  0  0  0  0  0  0  0  0  0
   -8.1519  -12.7508  -36.2025 C   0  0  0  0  0  0  0  0  0  0  0  0
   -7.4090  -13.8476  -36.6270 C   0  0  0  0  0  0  0  0  0  0  0  0
   -6.1658  -13.7362  -37.1912 C   0  0  0  0  0  0  0  0  0  0  0  0
   -5.3739  -14.7573  -37.6327 O   0  0  0  0  0  0  0  0  0  0  0  0
   -5.6042  -16.1033  -37.6370 C   0  0  0  0  0  0  0  0  0  0  0  0
   -4.6069  -16.8870  -38.1497 N   0  0  0  0  0  0  0  0  0  0  0  0
   -4.7025  -18.2244  -38.2145 C   0  0  0  0  0  0  0  0  0  0  0  0
   -3.6270  -18.9800  -38.7593 N   0  0  0  0  0  0  0  0  0  0  0  0
   -2.5923  -19.4807  -37.9294 C   0  0  0  0  0  0  0  0  0  0  0  0
   -2.4864  -19.3242  -36.5634 C   0  0  0  0  0  0  0  0  0  0  0  0
   -1.3159  -19.9860  -36.2105 C   0  0  0  0  0  0  0  0  0  0  0  0
   -0.7758  -20.0917  -34.8144 C   0  0  0  0  0  0  0  0  0  0  0  0
   -0.7534  -20.5127  -37.3285 N   0  0  0  0  0  0  0  0  0  0  0  0
   -1.5346  -20.1981  -38.3472 N   0  0  0  0  0  0  0  0  0  0  0  0
   -5.8578  -18.8120  -37.7411 C   0  0  0  0  0  0  0  0  0  0  0  0
   -6.8733  -18.0752  -37.2238 C   0  0  0  0  0  0  0  0  0  0  0  0
   -8.0672  -18.6897  -36.7355 N   0  0  0  0  0  0  0  0  0  0  0  0
   -8.1923  -20.0915  -36.7938 C   0  0  0  0  0  0  0  0  0  0  0  0
   -8.8420  -20.7567  -35.8212 C   0  0  0  0  0  0  0  0  0  0  0  0
   -9.3720  -19.9466  -34.7662 N   0  0  0  0  0  0  0  0  0  0  0  0
   -9.4553  -20.5214  -33.4203 C   0  0  0  0  0  0  0  0  0  0  0  0
   -9.8179  -18.5984  -35.0001 C   0  0  0  0  0  0  0  0  0  0  0  0
   -9.1669  -17.9270  -36.1789 C   0  0  0  0  0  0  0  0  0  0  0  0
   -6.7036  -16.7242  -37.1914 N   0  0  0  0  0  0  0  0  0  0  0  0
   -5.6582  -12.4399  -37.3274 C   0  0  0  0  0  0  0  0  0  0  0  0
   -6.3863  -11.3435  -36.9094 C   0  0  0  0  0  0  0  0  0  0  0  0
  1  2  1  0
  2  3  1  0
  3  4  2  0
  3  5  1  0
  5  6  1  0
  6  7  2  0
  7  8  1  0
  8  9  2  0
  9 10  1  0
 10 11  1  0
 11 12  2  0
 12 13  1  0
 13 14  1  0
 14 15  1  0
 15 16  1  0
 16 17  2  0
 17 18  1  0
 17 19  1  0
 19 20  1  0
 13 21  2  0
 21 22  1  0
 22 23  1  0
 23 24  1  0
 24 25  2  0
 25 26  1  0
 26 27  1  0
 26 28  1  0
 28 29  1  0
 22 30  2  0
  9 31  1  0
 31 32  2  0
 32  6  1  0
 30 11  1  0
 20 15  2  0
 29 23  1  0
M  END
>  <shape_align_shape_tanimoto>  (3) 
0.62505265680084043

>  <shape_align_color_tanimoto>  (3) 
0.072161573560937872

>  <metric>  (3) 
combo

>  <metric_score>  (3) 
0.349

>  <template_pid>  (3) 
5D10

>  <template_shape_score>  (3) 
0.625

>  <template_color_score>  (3) 
0.072

>  <template_combo_score>  (3) 
0.349

$$$$
