5WE9_shape_pose
     RDKit          3D

 34 37  0  0  0  0  0  0  0  0999 V2000
   -5.9841  -13.5239   20.9866 O   0  0  0  0  0  0  0  0  0  0  0  0
   -6.9318  -14.3418   20.7171 C   0  0  0  0  0  0  0  0  0  0  0  0
   -6.6829  -15.2945   19.7381 N   0  0  0  0  0  0  0  0  0  0  0  0
   -5.4687  -15.4763   18.9857 C   0  0  0  0  0  0  0  0  0  0  0  0
   -5.1177  -14.2591   18.1822 C   0  0  0  0  0  0  0  0  0  0  0  0
   -6.1215  -13.8493   17.1959 C   0  0  0  0  0  0  0  0  0  0  0  0
   -6.1217  -14.4944   15.9586 C   0  0  0  0  0  0  0  0  0  0  0  0
   -7.0235  -14.1049   15.0010 C   0  0  0  0  0  0  0  0  0  0  0  0
   -7.9416  -13.1000   15.1972 C   0  0  0  0  0  0  0  0  0  0  0  0
   -7.9535  -12.4551   16.4148 C   0  0  0  0  0  0  0  0  0  0  0  0
   -7.0507  -12.8537   17.3571 C   0  0  0  0  0  0  0  0  0  0  0  0
   -8.1457  -14.1439   21.4892 C   0  0  0  0  0  0  0  0  0  0  0  0
   -8.2781  -13.0253   22.2464 N   0  0  0  0  0  0  0  0  0  0  0  0
   -9.3314  -12.7209   22.9920 C   0  0  0  0  0  0  0  0  0  0  0  0
   -9.2800  -11.4383   23.7695 C   0  0  2  0  0  0  0  0  0  0  0  0
  -10.5903  -10.6979   23.6068 C   0  0  0  0  0  0  0  0  0  0  0  0
  -10.3085   -9.6130   22.6246 C   0  0  0  0  0  0  0  0  0  0  0  0
   -8.8345   -9.3124   22.7284 C   0  0  0  0  0  0  0  0  0  0  0  0
   -8.2985  -10.5403   23.2451 N   0  0  0  0  0  0  0  0  0  0  0  0
   -6.8846  -10.8324   23.2174 C   0  0  0  0  0  0  0  0  0  0  0  0
   -6.4154  -11.9082   23.6931 O   0  0  0  0  0  0  0  0  0  0  0  0
   -5.9222   -9.9084   22.6367 C   0  0  0  0  0  0  0  0  0  0  0  0
   -5.0856   -9.1088   23.4183 C   0  0  0  0  0  0  0  0  0  0  0  0
   -5.1921   -9.1964   24.7514 F   0  0  0  0  0  0  0  0  0  0  0  0
   -4.2066   -8.2715   22.7603 C   0  0  0  0  0  0  0  0  0  0  0  0
   -4.1584   -8.2293   21.3836 C   0  0  0  0  0  0  0  0  0  0  0  0
   -4.9853   -9.0181   20.5844 C   0  0  0  0  0  0  0  0  0  0  0  0
   -5.8561   -9.8469   21.2625 C   0  0  0  0  0  0  0  0  0  0  0  0
   -6.6686  -10.6191   20.4690 F   0  0  0  0  0  0  0  0  0  0  0  0
  -10.3757  -13.5559   23.0342 N   0  0  0  0  0  0  0  0  0  0  0  0
  -10.2977  -14.6886   22.2997 C   0  0  0  0  0  0  0  0  0  0  0  0
  -11.3343  -15.4370   22.3971 O   0  0  0  0  0  0  0  0  0  0  0  0
   -9.2127  -15.0160   21.5234 C   0  0  0  0  0  0  0  0  0  0  0  0
   -9.2243  -16.1917   20.8153 O   0  0  0  0  0  0  0  0  0  0  0  0
  1  2  2  0
  2  3  1  0
  3  4  1  0
  4  5  1  0
  5  6  1  0
  6  7  2  0
  7  8  1  0
  8  9  2  0
  9 10  1  0
 10 11  2  0
  2 12  1  0
 12 13  1  0
 13 14  2  0
 15 14  1  6
 15 16  1  0
 16 17  1  0
 17 18  1  0
 18 19  1  0
 19 20  1  0
 20 21  2  0
 20 22  1  0
 22 23  2  0
 23 24  1  0
 23 25  1  0
 25 26  2  0
 26 27  1  0
 27 28  2  0
 28 29  1  0
 14 30  1  0
 30 31  1  0
 31 32  2  0
 31 33  1  0
 33 34  1  0
 11  6  1  0
 33 12  2  0
 19 15  1  0
 28 22  1  0
M  END
>  <shape_align_shape_tanimoto>  (1) 
0.48318959438690917

>  <shape_align_color_tanimoto>  (1) 
0.058255983038973329

>  <metric>  (1) 
shape

>  <metric_score>  (1) 
0.483

>  <template_pid>  (1) 
5WE9

>  <template_shape_score>  (1) 
0.483

>  <template_color_score>  (1) 
0.058

>  <template_combo_score>  (1) 
0.271

$$$$
5WE9_color_pose
     RDKit          3D

 34 37  0  0  0  0  0  0  0  0999 V2000
   -7.1303  -15.5017   20.6138 O   0  0  0  0  0  0  0  0  0  0  0  0
   -6.6824  -14.3292   20.8206 C   0  0  0  0  0  0  0  0  0  0  0  0
   -5.3916  -14.0323   20.2797 N   0  0  0  0  0  0  0  0  0  0  0  0
   -4.7249  -15.0815   19.5537 C   0  0  0  0  0  0  0  0  0  0  0  0
   -3.4007  -14.5901   19.0785 C   0  0  0  0  0  0  0  0  0  0  0  0
   -3.4234  -13.4276   18.1883 C   0  0  0  0  0  0  0  0  0  0  0  0
   -3.3088  -12.1195   18.5826 C   0  0  0  0  0  0  0  0  0  0  0  0
   -3.3452  -11.0517   17.6814 C   0  0  0  0  0  0  0  0  0  0  0  0
   -3.5016  -11.2920   16.3331 C   0  0  0  0  0  0  0  0  0  0  0  0
   -3.6182  -12.5939   15.9148 C   0  0  0  0  0  0  0  0  0  0  0  0
   -3.5808  -13.6388   16.8131 C   0  0  0  0  0  0  0  0  0  0  0  0
   -7.4379  -13.3309   21.5702 C   0  0  0  0  0  0  0  0  0  0  0  0
   -6.9892  -12.0749   21.7643 N   0  0  0  0  0  0  0  0  0  0  0  0
   -7.6799  -11.1566   22.4594 C   0  0  0  0  0  0  0  0  0  0  0  0
   -7.0871   -9.8137   22.5979 C   0  0  2  0  0  0  0  0  0  0  0  0
   -7.1502   -9.1160   21.2643 C   0  0  0  0  0  0  0  0  0  0  0  0
   -5.9240   -9.6414   20.5667 C   0  0  0  0  0  0  0  0  0  0  0  0
   -4.9442  -10.0190   21.6288 C   0  0  0  0  0  0  0  0  0  0  0  0
   -5.6754   -9.8285   22.8901 N   0  0  0  0  0  0  0  0  0  0  0  0
   -5.0724   -9.6833   24.1969 C   0  0  0  0  0  0  0  0  0  0  0  0
   -5.8063   -9.5225   25.2184 O   0  0  0  0  0  0  0  0  0  0  0  0
   -3.6081   -9.7295   24.2866 C   0  0  0  0  0  0  0  0  0  0  0  0
   -2.8369   -8.5973   24.4474 C   0  0  0  0  0  0  0  0  0  0  0  0
   -3.4699   -7.3996   24.5272 F   0  0  0  0  0  0  0  0  0  0  0  0
   -1.4605   -8.6473   24.5278 C   0  0  0  0  0  0  0  0  0  0  0  0
   -0.8459   -9.8979   24.4411 C   0  0  0  0  0  0  0  0  0  0  0  0
   -1.6071  -11.0597   24.2779 C   0  0  0  0  0  0  0  0  0  0  0  0
   -2.9968  -10.9788   24.1997 C   0  0  0  0  0  0  0  0  0  0  0  0
   -3.7345  -12.1011   24.0413 F   0  0  0  0  0  0  0  0  0  0  0  0
   -8.8715  -11.5161   22.9816 N   0  0  0  0  0  0  0  0  0  0  0  0
   -9.3754  -12.7553   22.8232 C   0  0  0  0  0  0  0  0  0  0  0  0
  -10.4996  -13.0438   23.3337 O   0  0  0  0  0  0  0  0  0  0  0  0
   -8.6543  -13.7093   22.0987 C   0  0  0  0  0  0  0  0  0  0  0  0
   -9.1878  -14.9830   21.9438 O   0  0  0  0  0  0  0  0  0  0  0  0
  1  2  2  0
  2  3  1  0
  3  4  1  0
  4  5  1  0
  5  6  1  0
  6  7  2  0
  7  8  1  0
  8  9  2  0
  9 10  1  0
 10 11  2  0
  2 12  1  0
 12 13  1  0
 13 14  2  0
 15 14  1  6
 15 16  1  0
 16 17  1  0
 17 18  1  0
 18 19  1  0
 19 20  1  0
 20 21  2  0
 20 22  1  0
 22 23  2  0
 23 24  1  0
 23 25  1  0
 25 26  2  0
 26 27  1  0
 27 28  2  0
 28 29  1  0
 14 30  1  0
 30 31  1  0
 31 32  2  0
 31 33  1  0
 33 34  1  0
 11  6  1  0
 33 12  2  0
 19 15  1  0
 28 22  1  0
M  END
>  <shape_align_shape_tanimoto>  (2) 
0.40773283711462099

>  <shape_align_color_tanimoto>  (2) 
0.18398379828672473

>  <metric>  (2) 
color

>  <metric_score>  (2) 
0.184

>  <template_pid>  (2) 
5WE9

>  <template_shape_score>  (2) 
0.408

>  <template_color_score>  (2) 
0.184

>  <template_combo_score>  (2) 
0.296

$$$$
5WE9_combo_pose
     RDKit          3D

 34 37  0  0  0  0  0  0  0  0999 V2000
   -5.9057  -14.3605   20.4874 O   0  0  0  0  0  0  0  0  0  0  0  0
   -7.1377  -14.4959   20.7680 C   0  0  0  0  0  0  0  0  0  0  0  0
   -7.8029  -15.5768   20.1606 N   0  0  0  0  0  0  0  0  0  0  0  0
   -7.0192  -16.4429   19.2872 C   0  0  0  0  0  0  0  0  0  0  0  0
   -5.9033  -17.1398   19.9822 C   0  0  0  0  0  0  0  0  0  0  0  0
   -5.1500  -17.9861   19.0034 C   0  0  0  0  0  0  0  0  0  0  0  0
   -4.0710  -17.3786   18.3495 C   0  0  0  0  0  0  0  0  0  0  0  0
   -3.2931  -18.0499   17.4329 C   0  0  0  0  0  0  0  0  0  0  0  0
   -3.6439  -19.3786   17.1918 C   0  0  0  0  0  0  0  0  0  0  0  0
   -4.7055  -19.9811   17.8328 C   0  0  0  0  0  0  0  0  0  0  0  0
   -5.4847  -19.3088   18.7514 C   0  0  0  0  0  0  0  0  0  0  0  0
   -7.7017  -13.5266   21.6754 C   0  0  0  0  0  0  0  0  0  0  0  0
   -6.8649  -12.5681   22.1420 N   0  0  0  0  0  0  0  0  0  0  0  0
   -7.2412  -11.6131   23.0039 C   0  0  0  0  0  0  0  0  0  0  0  0
   -6.2760  -10.6249   23.4459 C   0  0  2  0  0  0  0  0  0  0  0  0
   -6.8260   -9.4987   24.2836 C   0  0  0  0  0  0  0  0  0  0  0  0
   -5.5832   -8.5938   24.3614 C   0  0  0  0  0  0  0  0  0  0  0  0
   -4.6939   -9.0062   23.1814 C   0  0  0  0  0  0  0  0  0  0  0  0
   -5.6274   -9.8493   22.3934 N   0  0  0  0  0  0  0  0  0  0  0  0
   -5.8259   -9.8415   20.9952 C   0  0  0  0  0  0  0  0  0  0  0  0
   -6.6520  -10.6201   20.4072 O   0  0  0  0  0  0  0  0  0  0  0  0
   -5.1054   -8.9412   20.0971 C   0  0  0  0  0  0  0  0  0  0  0  0
   -4.2618   -9.5646   19.1674 C   0  0  0  0  0  0  0  0  0  0  0  0
   -4.1374  -10.9305   19.1423 F   0  0  0  0  0  0  0  0  0  0  0  0
   -3.5324   -8.8146   18.2535 C   0  0  0  0  0  0  0  0  0  0  0  0
   -3.6666   -7.4279   18.2920 C   0  0  0  0  0  0  0  0  0  0  0  0
   -4.5072   -6.8292   19.2208 C   0  0  0  0  0  0  0  0  0  0  0  0
   -5.2404   -7.5713   20.1379 C   0  0  0  0  0  0  0  0  0  0  0  0
   -6.0606   -6.9720   21.0347 F   0  0  0  0  0  0  0  0  0  0  0  0
   -8.5220  -11.5636   23.4618 N   0  0  0  0  0  0  0  0  0  0  0  0
   -9.3913  -12.4948   23.0262 C   0  0  0  0  0  0  0  0  0  0  0  0
  -10.5678  -12.4241   23.4666 O   0  0  0  0  0  0  0  0  0  0  0  0
   -8.9847  -13.4804   22.1312 C   0  0  0  0  0  0  0  0  0  0  0  0
   -9.9062  -14.4091   21.7153 O   0  0  0  0  0  0  0  0  0  0  0  0
  1  2  2  0
  2  3  1  0
  3  4  1  0
  4  5  1  0
  5  6  1  0
  6  7  2  0
  7  8  1  0
  8  9  2  0
  9 10  1  0
 10 11  2  0
  2 12  1  0
 12 13  1  0
 13 14  2  0
 15 14  1  6
 15 16  1  0
 16 17  1  0
 17 18  1  0
 18 19  1  0
 19 20  1  0
 20 21  2  0
 20 22  1  0
 22 23  2  0
 23 24  1  0
 23 25  1  0
 25 26  2  0
 26 27  1  0
 27 28  2  0
 28 29  1  0
 14 30  1  0
 30 31  1  0
 31 32  2  0
 31 33  1  0
 33 34  1  0
 11  6  1  0
 33 12  2  0
 19 15  1  0
 28 22  1  0
M  END
>  <shape_align_shape_tanimoto>  (3) 
0.46648506960109642

>  <shape_align_color_tanimoto>  (3) 
0.15624122219006992

>  <metric>  (3) 
combo

>  <metric_score>  (3) 
0.311

>  <template_pid>  (3) 
5WE9

>  <template_shape_score>  (3) 
0.466

>  <template_color_score>  (3) 
0.156

>  <template_combo_score>  (3) 
0.311

$$$$
