6OOZ_shape_pose
     RDKit          3D

 26 29  0  0  0  0  0  0  0  0999 V2000
  -33.4314  -84.9228   25.1921 C   0  0  0  0  0  0  0  0  0  0  0  0
  -32.5825  -86.1368   25.2417 C   0  0  0  0  0  0  0  0  0  0  0  0
  -33.1607  -87.3474   24.8982 C   0  0  0  0  0  0  0  0  0  0  0  0
  -32.4039  -88.5239   24.9280 C   0  0  0  0  0  0  0  0  0  0  0  0
  -31.0693  -88.5039   25.2993 C   0  0  0  0  0  0  0  0  0  0  0  0
  -30.2445  -89.7479   25.3377 C   0  0  0  0  0  0  0  0  0  0  0  0
  -30.4901  -87.2989   25.6423 C   0  0  0  0  0  0  0  0  0  0  0  0
  -29.0639  -87.1749   26.0545 C   0  0  0  0  0  0  0  0  0  0  0  0
  -28.6597  -85.8391   26.3694 N   0  0  0  0  0  0  0  0  0  0  0  0
  -28.6550  -85.1740   27.5310 C   0  0  0  0  0  0  0  0  0  0  0  0
  -29.0157  -85.5575   28.8983 C   0  0  1  0  0  0  0  0  0  0  0  0
  -29.9023  -84.6031   29.4745 O   0  0  0  0  0  0  0  0  0  0  0  0
  -29.4419  -86.9200   29.1447 C   0  0  0  0  0  0  0  0  0  0  0  0
  -30.7336  -87.4043   28.9782 C   0  0  0  0  0  0  0  0  0  0  0  0
  -31.0774  -88.7117   29.2555 C   0  0  0  0  0  0  0  0  0  0  0  0
  -30.1817  -89.6046   29.7062 N   0  0  0  0  0  0  0  0  0  0  0  0
  -28.9176  -89.1744   29.8811 C   0  0  0  0  0  0  0  0  0  0  0  0
  -28.5250  -87.8769   29.6178 C   0  0  0  0  0  0  0  0  0  0  0  0
  -28.1863  -83.9049   27.2731 N   0  0  0  0  0  0  0  0  0  0  0  0
  -27.9111  -83.7952   25.9919 C   0  0  0  0  0  0  0  0  0  0  0  0
  -27.4228  -82.7320   25.2651 C   0  0  0  0  0  0  0  0  0  0  0  0
  -27.2089  -82.8500   23.9090 C   0  0  0  0  0  0  0  0  0  0  0  0
  -27.5017  -84.0659   23.3160 C   0  0  0  0  0  0  0  0  0  0  0  0
  -27.9922  -85.1420   24.0315 C   0  0  0  0  0  0  0  0  0  0  0  0
  -28.1964  -84.9948   25.3881 C   0  0  0  0  0  0  0  0  0  0  0  0
  -31.2694  -86.1439   25.6029 C   0  0  0  0  0  0  0  0  0  0  0  0
  1  2  1  0
  2  3  2  0
  3  4  1  0
  4  5  2  0
  5  6  1  0
  5  7  1  0
  7  8  1  0
  8  9  1  0
  9 10  1  0
 10 11  1  0
 11 12  1  6
 11 13  1  0
 13 14  2  0
 14 15  1  0
 15 16  2  0
 16 17  1  0
 17 18  2  0
 10 19  2  0
 19 20  1  0
 20 21  2  0
 21 22  1  0
 22 23  2  0
 23 24  1  0
 24 25  2  0
  7 26  2  0
 26  2  1  0
 25  9  1  0
 18 13  1  0
 25 20  1  0
M  END
>  <shape_align_shape_tanimoto>  (1) 
0.58039696893106263

>  <shape_align_color_tanimoto>  (1) 
0.09426683661485126

>  <metric>  (1) 
shape

>  <metric_score>  (1) 
0.580

>  <template_pid>  (1) 
6OOZ

>  <template_shape_score>  (1) 
0.580

>  <template_color_score>  (1) 
0.094

>  <template_combo_score>  (1) 
0.337

$$$$
6OOZ_color_pose
     RDKit          3D

 26 29  0  0  0  0  0  0  0  0999 V2000
  -34.1457  -84.9650   25.5058 C   0  0  0  0  0  0  0  0  0  0  0  0
  -33.5048  -86.3084   25.5578 C   0  0  0  0  0  0  0  0  0  0  0  0
  -34.1837  -87.4648   25.2414 C   0  0  0  0  0  0  0  0  0  0  0  0
  -33.5304  -88.6710   25.3112 C   0  0  0  0  0  0  0  0  0  0  0  0
  -32.1901  -88.7266   25.6990 C   0  0  0  0  0  0  0  0  0  0  0  0
  -31.4726  -90.0465   25.7764 C   0  0  0  0  0  0  0  0  0  0  0  0
  -31.5181  -87.5454   26.0158 C   0  0  0  0  0  0  0  0  0  0  0  0
  -30.0977  -87.6894   26.4159 C   0  0  0  0  0  0  0  0  0  0  0  0
  -29.4543  -86.4596   26.7675 N   0  0  0  0  0  0  0  0  0  0  0  0
  -29.4149  -85.9447   28.0080 C   0  0  0  0  0  0  0  0  0  0  0  0
  -30.0174  -86.5497   29.2289 C   0  0  1  0  0  0  0  0  0  0  0  0
  -31.2873  -87.0139   28.9920 O   0  0  0  0  0  0  0  0  0  0  0  0
  -29.1869  -87.7109   29.6902 C   0  0  0  0  0  0  0  0  0  0  0  0
  -27.9037  -87.9134   29.1842 C   0  0  0  0  0  0  0  0  0  0  0  0
  -27.1647  -88.9983   29.6326 C   0  0  0  0  0  0  0  0  0  0  0  0
  -27.6690  -89.8537   30.5459 N   0  0  0  0  0  0  0  0  0  0  0  0
  -28.9107  -89.6724   31.0466 C   0  0  0  0  0  0  0  0  0  0  0  0
  -29.6864  -88.5952   30.6231 C   0  0  0  0  0  0  0  0  0  0  0  0
  -28.7336  -84.7808   27.9779 N   0  0  0  0  0  0  0  0  0  0  0  0
  -28.3354  -84.5494   26.7159 C   0  0  0  0  0  0  0  0  0  0  0  0
  -27.6147  -83.4945   26.1959 C   0  0  0  0  0  0  0  0  0  0  0  0
  -27.3260  -83.4902   24.8267 C   0  0  0  0  0  0  0  0  0  0  0  0
  -27.7879  -84.5575   24.0761 C   0  0  0  0  0  0  0  0  0  0  0  0
  -28.5068  -85.6024   24.6157 C   0  0  0  0  0  0  0  0  0  0  0  0
  -28.7913  -85.6061   25.9653 C   0  0  0  0  0  0  0  0  0  0  0  0
  -32.1742  -86.3477   25.9445 C   0  0  0  0  0  0  0  0  0  0  0  0
  1  2  1  0
  2  3  2  0
  3  4  1  0
  4  5  2  0
  5  6  1  0
  5  7  1  0
  7  8  1  0
  8  9  1  0
  9 10  1  0
 10 11  1  0
 11 12  1  6
 11 13  1  0
 13 14  2  0
 14 15  1  0
 15 16  2  0
 16 17  1  0
 17 18  2  0
 10 19  2  0
 19 20  1  0
 20 21  2  0
 21 22  1  0
 22 23  2  0
 23 24  1  0
 24 25  2  0
  7 26  2  0
 26  2  1  0
 25  9  1  0
 18 13  1  0
 25 20  1  0
M  END
>  <shape_align_shape_tanimoto>  (2) 
0.55183801151668077

>  <shape_align_color_tanimoto>  (2) 
0.1010878276381468

>  <metric>  (2) 
color

>  <metric_score>  (2) 
0.101

>  <template_pid>  (2) 
6OOZ

>  <template_shape_score>  (2) 
0.552

>  <template_color_score>  (2) 
0.101

>  <template_combo_score>  (2) 
0.326

$$$$
6OOZ_combo_pose
     RDKit          3D

 26 29  0  0  0  0  0  0  0  0999 V2000
  -33.4314  -84.9228   25.1921 C   0  0  0  0  0  0  0  0  0  0  0  0
  -32.5825  -86.1368   25.2417 C   0  0  0  0  0  0  0  0  0  0  0  0
  -33.1607  -87.3474   24.8982 C   0  0  0  0  0  0  0  0  0  0  0  0
  -32.4039  -88.5239   24.9280 C   0  0  0  0  0  0  0  0  0  0  0  0
  -31.0693  -88.5039   25.2993 C   0  0  0  0  0  0  0  0  0  0  0  0
  -30.2445  -89.7479   25.3377 C   0  0  0  0  0  0  0  0  0  0  0  0
  -30.4901  -87.2989   25.6423 C   0  0  0  0  0  0  0  0  0  0  0  0
  -29.0639  -87.1749   26.0545 C   0  0  0  0  0  0  0  0  0  0  0  0
  -28.6597  -85.8391   26.3694 N   0  0  0  0  0  0  0  0  0  0  0  0
  -28.6550  -85.1740   27.5310 C   0  0  0  0  0  0  0  0  0  0  0  0
  -29.0157  -85.5575   28.8983 C   0  0  1  0  0  0  0  0  0  0  0  0
  -29.9023  -84.6031   29.4745 O   0  0  0  0  0  0  0  0  0  0  0  0
  -29.4419  -86.9200   29.1447 C   0  0  0  0  0  0  0  0  0  0  0  0
  -30.7336  -87.4043   28.9782 C   0  0  0  0  0  0  0  0  0  0  0  0
  -31.0774  -88.7117   29.2555 C   0  0  0  0  0  0  0  0  0  0  0  0
  -30.1817  -89.6046   29.7062 N   0  0  0  0  0  0  0  0  0  0  0  0
  -28.9176  -89.1744   29.8811 C   0  0  0  0  0  0  0  0  0  0  0  0
  -28.5250  -87.8769   29.6178 C   0  0  0  0  0  0  0  0  0  0  0  0
  -28.1863  -83.9049   27.2731 N   0  0  0  0  0  0  0  0  0  0  0  0
  -27.9111  -83.7952   25.9919 C   0  0  0  0  0  0  0  0  0  0  0  0
  -27.4228  -82.7320   25.2651 C   0  0  0  0  0  0  0  0  0  0  0  0
  -27.2089  -82.8500   23.9090 C   0  0  0  0  0  0  0  0  0  0  0  0
  -27.5017  -84.0659   23.3160 C   0  0  0  0  0  0  0  0  0  0  0  0
  -27.9922  -85.1420   24.0315 C   0  0  0  0  0  0  0  0  0  0  0  0
  -28.1964  -84.9948   25.3881 C   0  0  0  0  0  0  0  0  0  0  0  0
  -31.2694  -86.1439   25.6029 C   0  0  0  0  0  0  0  0  0  0  0  0
  1  2  1  0
  2  3  2  0
  3  4  1  0
  4  5  2  0
  5  6  1  0
  5  7  1  0
  7  8  1  0
  8  9  1  0
  9 10  1  0
 10 11  1  0
 11 12  1  6
 11 13  1  0
 13 14  2  0
 14 15  1  0
 15 16  2  0
 16 17  1  0
 17 18  2  0
 10 19  2  0
 19 20  1  0
 20 21  2  0
 21 22  1  0
 22 23  2  0
 23 24  1  0
 24 25  2  0
  7 26  2  0
 26  2  1  0
 25  9  1  0
 18 13  1  0
 25 20  1  0
M  END
>  <shape_align_shape_tanimoto>  (3) 
0.58039696893106263

>  <shape_align_color_tanimoto>  (3) 
0.09426683661485126

>  <metric>  (3) 
combo

>  <metric_score>  (3) 
0.337

>  <template_pid>  (3) 
6OOZ

>  <template_shape_score>  (3) 
0.580

>  <template_color_score>  (3) 
0.094

>  <template_combo_score>  (3) 
0.337

$$$$
