4PPA_shape_pose
     RDKit          3D

 31 35  0  0  0  0  0  0  0  0999 V2000
  -77.8108   -6.9868    5.6461 N   0  0  0  0  0  0  0  0  0  0  0  0
  -78.6853   -7.4549    5.0572 C   0  0  0  0  0  0  0  0  0  0  0  0
  -79.7773   -8.0342    4.3013 C   0  0  0  0  0  0  0  0  0  0  0  0
  -80.5695   -7.1608    3.5511 C   0  0  0  0  0  0  0  0  0  0  0  0
  -81.5990   -7.7321    2.8426 C   0  0  0  0  0  0  0  0  0  0  0  0
  -81.8669   -9.0795    2.8454 C   0  0  0  0  0  0  0  0  0  0  0  0
  -81.0609   -9.9111    3.5998 C   0  0  0  0  0  0  0  0  0  0  0  0
  -81.3910  -11.3631    3.5699 C   0  0  0  0  0  0  0  0  0  0  0  0
  -82.3397  -11.6601    4.6318 N   0  0  0  0  0  0  0  0  0  0  0  0
  -83.7017  -11.6254    4.5474 C   0  0  0  0  0  0  0  0  0  0  0  0
  -84.2330  -11.9684    5.7572 C   0  0  0  0  0  0  0  0  0  0  0  0
  -85.5883  -12.0797    6.1831 N   0  0  0  0  0  0  0  0  0  0  0  0
  -86.6985  -11.8317    5.3710 C   0  0  0  0  0  0  0  0  0  0  0  0
  -86.4284  -11.4708    4.1650 O   0  0  0  0  0  0  0  0  0  0  0  0
  -88.0971  -11.9172    5.6860 C   0  0  0  0  0  0  0  0  0  0  0  0
  -89.0454  -11.3676    4.8575 N   0  0  0  0  0  0  0  0  0  0  0  0
  -90.2564  -11.5847    5.3392 N   0  0  0  0  0  0  0  0  0  0  0  0
  -90.1916  -12.2763    6.4901 C   0  0  0  0  0  0  0  0  0  0  0  0
  -91.1397  -12.7575    7.3712 C   0  0  0  0  0  0  0  0  0  0  0  0
  -90.7666  -13.4648    8.4975 C   0  0  0  0  0  0  0  0  0  0  0  0
  -91.7289  -13.9948    9.4590 C   0  0  0  0  0  0  0  0  0  0  0  0
  -92.9679  -13.4507    9.8111 C   0  0  0  0  0  0  0  0  0  0  0  0
  -93.5348  -14.2616   10.7369 N   0  0  0  0  0  0  0  0  0  0  0  0
  -92.6950  -15.2592   10.9520 N   0  0  0  0  0  0  0  0  0  0  0  0
  -91.5972  -15.1470   10.2113 C   0  0  0  0  0  0  0  0  0  0  0  0
  -89.4019  -13.6676    8.7001 C   0  0  0  0  0  0  0  0  0  0  0  0
  -88.4742  -13.1794    7.8101 C   0  0  0  0  0  0  0  0  0  0  0  0
  -88.8237  -12.4774    6.6926 C   0  0  0  0  0  0  0  0  0  0  0  0
  -83.1157  -12.2103    6.5706 C   0  0  0  0  0  0  0  0  0  0  0  0
  -81.9965  -12.0146    5.8583 N   0  0  0  0  0  0  0  0  0  0  0  0
  -80.0165   -9.3943    4.3284 C   0  0  0  0  0  0  0  0  0  0  0  0
  1  2  3  0
  2  3  1  0
  3  4  2  0
  4  5  1  0
  5  6  2  0
  6  7  1  0
  7  8  1  0
  8  9  1  0
  9 10  1  0
 10 11  2  0
 11 12  1  0
 12 13  1  0
 13 14  2  0
 13 15  1  0
 15 16  2  0
 16 17  1  0
 17 18  1  0
 18 19  2  0
 19 20  1  0
 20 21  1  0
 21 22  1  0
 22 23  2  0
 23 24  1  0
 24 25  1  0
 20 26  2  0
 26 27  1  0
 27 28  2  0
 11 29  1  0
 29 30  2  0
  7 31  2  0
 31  3  1  0
 30  9  1  0
 28 15  1  0
 28 18  1  0
 25 21  2  0
M  END
>  <shape_align_shape_tanimoto>  (1) 
0.67425540159629749

>  <shape_align_color_tanimoto>  (1) 
0.0429247729591914

>  <metric>  (1) 
shape

>  <metric_score>  (1) 
0.674

>  <template_pid>  (1) 
4PPA

>  <template_shape_score>  (1) 
0.674

>  <template_color_score>  (1) 
0.043

>  <template_combo_score>  (1) 
0.359

$$$$
4PPA_color_pose
     RDKit          3D

 31 35  0  0  0  0  0  0  0  0999 V2000
  -80.0821  -17.2515    3.3700 N   0  0  0  0  0  0  0  0  0  0  0  0
  -79.8724  -16.1981    3.7519 C   0  0  0  0  0  0  0  0  0  0  0  0
  -79.6341  -14.9150    4.2344 C   0  0  0  0  0  0  0  0  0  0  0  0
  -78.5630  -14.6806    5.0253 C   0  0  0  0  0  0  0  0  0  0  0  0
  -78.3516  -13.4221    5.4825 C   0  0  0  0  0  0  0  0  0  0  0  0
  -79.2107  -12.4434    5.1380 C   0  0  0  0  0  0  0  0  0  0  0  0
  -80.2757  -12.6959    4.3469 C   0  0  0  0  0  0  0  0  0  0  0  0
  -81.1659  -11.6136    4.0072 C   0  0  0  0  0  0  0  0  0  0  0  0
  -82.2172  -11.4877    4.9465 N   0  0  0  0  0  0  0  0  0  0  0  0
  -83.3861  -12.0475    4.9459 C   0  0  0  0  0  0  0  0  0  0  0  0
  -84.0346  -11.6263    6.0394 C   0  0  0  0  0  0  0  0  0  0  0  0
  -85.3093  -11.9522    6.4658 N   0  0  0  0  0  0  0  0  0  0  0  0
  -86.3735  -11.2164    6.0757 C   0  0  0  0  0  0  0  0  0  0  0  0
  -86.1034  -10.2492    5.3294 O   0  0  0  0  0  0  0  0  0  0  0  0
  -87.7194  -11.3774    6.3858 C   0  0  0  0  0  0  0  0  0  0  0  0
  -88.6114  -10.4359    6.0761 N   0  0  0  0  0  0  0  0  0  0  0  0
  -89.7812  -10.7925    6.4401 N   0  0  0  0  0  0  0  0  0  0  0  0
  -89.7427  -11.9667    7.0014 C   0  0  0  0  0  0  0  0  0  0  0  0
  -90.6898  -12.7520    7.5299 C   0  0  0  0  0  0  0  0  0  0  0  0
  -90.3512  -13.9424    8.0420 C   0  0  0  0  0  0  0  0  0  0  0  0
  -91.3365  -14.7919    8.6084 C   0  0  0  0  0  0  0  0  0  0  0  0
  -92.4707  -14.4263    9.2556 C   0  0  0  0  0  0  0  0  0  0  0  0
  -93.0613  -15.5420    9.5964 N   0  0  0  0  0  0  0  0  0  0  0  0
  -92.4051  -16.5606    9.2243 N   0  0  0  0  0  0  0  0  0  0  0  0
  -91.3317  -16.1475    8.6095 C   0  0  0  0  0  0  0  0  0  0  0  0
  -89.0598  -14.2909    7.9973 C   0  0  0  0  0  0  0  0  0  0  0  0
  -88.1271  -13.4971    7.4674 C   0  0  0  0  0  0  0  0  0  0  0  0
  -88.4429  -12.3228    6.9605 C   0  0  0  0  0  0  0  0  0  0  0  0
  -83.2151  -10.7926    6.6991 C   0  0  0  0  0  0  0  0  0  0  0  0
  -82.1106  -10.7418    5.9848 N   0  0  0  0  0  0  0  0  0  0  0  0
  -80.4698  -13.9433    3.9043 C   0  0  0  0  0  0  0  0  0  0  0  0
  1  2  3  0
  2  3  1  0
  3  4  2  0
  4  5  1  0
  5  6  2  0
  6  7  1  0
  7  8  1  0
  8  9  1  0
  9 10  1  0
 10 11  2  0
 11 12  1  0
 12 13  1  0
 13 14  2  0
 13 15  1  0
 15 16  2  0
 16 17  1  0
 17 18  1  0
 18 19  2  0
 19 20  1  0
 20 21  1  0
 21 22  1  0
 22 23  2  0
 23 24  1  0
 24 25  1  0
 20 26  2  0
 26 27  1  0
 27 28  2  0
 11 29  1  0
 29 30  2  0
  7 31  2  0
 31  3  1  0
 30  9  1  0
 28 15  1  0
 28 18  1  0
 25 21  2  0
M  END
>  <shape_align_shape_tanimoto>  (2) 
0.45252860511684617

>  <shape_align_color_tanimoto>  (2) 
0.11290218262808936

>  <metric>  (2) 
color

>  <metric_score>  (2) 
0.113

>  <template_pid>  (2) 
4PPA

>  <template_shape_score>  (2) 
0.453

>  <template_color_score>  (2) 
0.113

>  <template_combo_score>  (2) 
0.283

$$$$
4PPA_combo_pose
     RDKit          3D

 31 35  0  0  0  0  0  0  0  0999 V2000
  -94.4789  -13.6525   12.2700 N   0  0  0  0  0  0  0  0  0  0  0  0
  -93.8258  -14.1266   11.4424 C   0  0  0  0  0  0  0  0  0  0  0  0
  -93.0232  -14.7295   10.3935 C   0  0  0  0  0  0  0  0  0  0  0  0
  -92.5709  -16.0458   10.5049 C   0  0  0  0  0  0  0  0  0  0  0  0
  -91.8016  -16.6264    9.5022 C   0  0  0  0  0  0  0  0  0  0  0  0
  -91.4939  -15.8647    8.3863 C   0  0  0  0  0  0  0  0  0  0  0  0
  -91.9221  -14.5640    8.2417 C   0  0  0  0  0  0  0  0  0  0  0  0
  -91.5954  -13.7412    7.0458 C   0  0  0  0  0  0  0  0  0  0  0  0
  -90.3541  -13.0204    7.2616 N   0  0  0  0  0  0  0  0  0  0  0  0
  -89.0901  -13.3884    6.9897 C   0  0  0  0  0  0  0  0  0  0  0  0
  -88.2701  -12.3537    7.3803 C   0  0  0  0  0  0  0  0  0  0  0  0
  -86.8542  -12.2386    7.3125 N   0  0  0  0  0  0  0  0  0  0  0  0
  -86.1492  -11.7140    6.2143 C   0  0  0  0  0  0  0  0  0  0  0  0
  -86.6945  -11.2839    5.1580 O   0  0  0  0  0  0  0  0  0  0  0  0
  -84.6759  -11.6500    6.2728 C   0  0  0  0  0  0  0  0  0  0  0  0
  -83.9004  -12.0459    7.3161 N   0  0  0  0  0  0  0  0  0  0  0  0
  -82.6195  -11.8596    7.0554 N   0  0  0  0  0  0  0  0  0  0  0  0
  -82.5290  -11.3296    5.8168 C   0  0  0  0  0  0  0  0  0  0  0  0
  -81.4516  -10.9394    5.0457 C   0  0  0  0  0  0  0  0  0  0  0  0
  -81.6129  -10.4129    3.7781 C   0  0  0  0  0  0  0  0  0  0  0  0
  -80.4243  -10.0264    3.0345 C   0  0  0  0  0  0  0  0  0  0  0  0
  -79.1607  -10.6114    3.0950 C   0  0  0  0  0  0  0  0  0  0  0  0
  -78.3428   -9.9509    2.2456 N   0  0  0  0  0  0  0  0  0  0  0  0
  -79.0249   -8.9712    1.6453 N   0  0  0  0  0  0  0  0  0  0  0  0
  -80.3074   -8.9872    2.1053 C   0  0  0  0  0  0  0  0  0  0  0  0
  -82.8966  -10.2781    3.2797 C   0  0  0  0  0  0  0  0  0  0  0  0
  -83.9927  -10.6717    4.0567 C   0  0  0  0  0  0  0  0  0  0  0  0
  -83.8069  -11.1882    5.3037 C   0  0  0  0  0  0  0  0  0  0  0  0
  -89.0697  -11.3455    7.8977 C   0  0  0  0  0  0  0  0  0  0  0  0
  -90.3358  -11.8010    7.8031 N   0  0  0  0  0  0  0  0  0  0  0  0
  -92.6950  -13.9873    9.2542 C   0  0  0  0  0  0  0  0  0  0  0  0
  1  2  3  0
  2  3  1  0
  3  4  2  0
  4  5  1  0
  5  6  2  0
  6  7  1  0
  7  8  1  0
  8  9  1  0
  9 10  1  0
 10 11  2  0
 11 12  1  0
 12 13  1  0
 13 14  2  0
 13 15  1  0
 15 16  2  0
 16 17  1  0
 17 18  1  0
 18 19  2  0
 19 20  1  0
 20 21  1  0
 21 22  1  0
 22 23  2  0
 23 24  1  0
 24 25  1  0
 20 26  2  0
 26 27  1  0
 27 28  2  0
 11 29  1  0
 29 30  2  0
  7 31  2  0
 31  3  1  0
 30  9  1  0
 28 15  1  0
 28 18  1  0
 25 21  2  0
M  END
>  <shape_align_shape_tanimoto>  (3) 
0.66576019373529127

>  <shape_align_color_tanimoto>  (3) 
0.093068908083062798

>  <metric>  (3) 
combo

>  <metric_score>  (3) 
0.379

>  <template_pid>  (3) 
4PPA

>  <template_shape_score>  (3) 
0.666

>  <template_color_score>  (3) 
0.093

>  <template_combo_score>  (3) 
0.379

$$$$
