3GY2_shape_pose
     RDKit          3D

 21 22  0  0  0  0  0  0  0  0999 V2000
   43.5004   -5.0231   24.1774 N   0  0  0  0  0  0  0  0  0  0  0  0
   44.2010   -3.8007   24.3837 C   0  0  0  0  0  0  0  0  0  0  0  0
   44.8266   -3.2696   23.3805 N   0  0  0  0  0  0  0  0  0  0  0  0
   44.2336   -3.1349   25.6839 C   0  0  0  0  0  0  0  0  0  0  0  0
   44.1506   -3.9360   26.8090 C   0  0  0  0  0  0  0  0  0  0  0  0
   44.1806   -3.3155   28.0419 C   0  0  0  0  0  0  0  0  0  0  0  0
   44.2891   -1.9442   28.1761 C   0  0  0  0  0  0  0  0  0  0  0  0
   44.3090   -1.4290   29.5052 N   0  0  0  0  0  0  0  0  0  0  0  0
   43.4800   -0.6133   29.9872 N   0  0  0  0  0  0  0  0  0  0  0  0
   43.5364   -0.1302   31.3048 N   0  0  0  0  0  0  0  0  0  0  0  0
   43.2452   -1.0625   32.3466 C   0  0  0  0  0  0  0  0  0  0  0  0
   42.9307   -2.3615   32.0016 C   0  0  0  0  0  0  0  0  0  0  0  0
   42.6395   -3.3070   32.9777 C   0  0  0  0  0  0  0  0  0  0  0  0
   42.6718   -2.9181   34.3002 C   0  0  0  0  0  0  0  0  0  0  0  0
   42.3662   -3.9068   35.3424 C   0  0  0  0  0  0  0  0  0  0  0  0
   42.9961   -3.7533   36.6269 N   0  0  0  0  0  0  0  0  0  0  0  0
   41.5613   -4.8965   35.1470 N   0  0  0  0  0  0  0  0  0  0  0  0
   42.9877   -1.6082   34.6726 C   0  0  0  0  0  0  0  0  0  0  0  0
   43.2750   -0.6824   33.6731 C   0  0  0  0  0  0  0  0  0  0  0  0
   44.3722   -1.1406   27.0581 C   0  0  0  0  0  0  0  0  0  0  0  0
   44.3419   -1.7652   25.8238 C   0  0  0  0  0  0  0  0  0  0  0  0
  1  2  1  0
  2  3  2  0
  2  4  1  0
  4  5  2  0
  5  6  1  0
  6  7  2  0
  7  8  1  0
  8  9  2  0
  9 10  1  0
 10 11  1  0
 11 12  2  0
 12 13  1  0
 13 14  2  0
 14 15  1  0
 15 16  1  0
 15 17  2  0
 14 18  1  0
 18 19  2  0
  7 20  1  0
 20 21  2  0
 21  4  1  0
 19 11  1  0
M  CHG  2   3   1  17   1
M  END
>  <shape_align_shape_tanimoto>  (1) 
0.8024870616659624

>  <shape_align_color_tanimoto>  (1) 
0.087314465528117349

>  <metric>  (1) 
shape

>  <metric_score>  (1) 
0.802

>  <template_pid>  (1) 
3GY2

>  <template_shape_score>  (1) 
0.802

>  <template_color_score>  (1) 
0.087

>  <template_combo_score>  (1) 
0.445

$$$$
3GY2_color_pose
     RDKit          3D

 21 22  0  0  0  0  0  0  0  0999 V2000
   42.5165   -4.9312   25.7742 N   0  0  0  0  0  0  0  0  0  0  0  0
   43.7346   -4.2132   25.7137 C   0  0  0  0  0  0  0  0  0  0  0  0
   44.6204   -4.6526   24.8304 N   0  0  0  0  0  0  0  0  0  0  0  0
   44.0156   -3.0678   26.5726 C   0  0  0  0  0  0  0  0  0  0  0  0
   44.6824   -3.3032   27.7745 C   0  0  0  0  0  0  0  0  0  0  0  0
   44.9046   -2.2236   28.6028 C   0  0  0  0  0  0  0  0  0  0  0  0
   44.4804   -0.9463   28.2567 C   0  0  0  0  0  0  0  0  0  0  0  0
   44.6887    0.1698   29.1905 N   0  0  0  0  0  0  0  0  0  0  0  0
   44.1690    0.2624   30.2305 N   0  0  0  0  0  0  0  0  0  0  0  0
   43.6282    0.4494   31.4187 N   0  0  0  0  0  0  0  0  0  0  0  0
   43.3290   -0.7386   32.2143 C   0  0  0  0  0  0  0  0  0  0  0  0
   43.6537   -0.8162   33.5562 C   0  0  0  0  0  0  0  0  0  0  0  0
   43.3365   -2.0030   34.2505 C   0  0  0  0  0  0  0  0  0  0  0  0
   42.7108   -3.0282   33.5238 C   0  0  0  0  0  0  0  0  0  0  0  0
   42.3644   -4.2879   34.1980 C   0  0  0  0  0  0  0  0  0  0  0  0
   43.1704   -5.4376   33.8635 N   0  0  0  0  0  0  0  0  0  0  0  0
   41.4061   -4.3981   35.0477 N   0  0  0  0  0  0  0  0  0  0  0  0
   42.3978   -2.9328   32.2080 C   0  0  0  0  0  0  0  0  0  0  0  0
   42.7102   -1.7696   31.5369 C   0  0  0  0  0  0  0  0  0  0  0  0
   43.8200   -0.6955   27.0692 C   0  0  0  0  0  0  0  0  0  0  0  0
   43.5988   -1.7730   26.2425 C   0  0  0  0  0  0  0  0  0  0  0  0
  1  2  1  0
  2  3  2  0
  2  4  1  0
  4  5  2  0
  5  6  1  0
  6  7  2  0
  7  8  1  0
  8  9  2  0
  9 10  1  0
 10 11  1  0
 11 12  2  0
 12 13  1  0
 13 14  2  0
 14 15  1  0
 15 16  1  0
 15 17  2  0
 14 18  1  0
 18 19  2  0
  7 20  1  0
 20 21  2  0
 21  4  1  0
 19 11  1  0
M  CHG  2   3   1  17   1
M  END
>  <shape_align_shape_tanimoto>  (2) 
0.63275283374734392

>  <shape_align_color_tanimoto>  (2) 
0.15924170886246244

>  <metric>  (2) 
color

>  <metric_score>  (2) 
0.159

>  <template_pid>  (2) 
3GY2

>  <template_shape_score>  (2) 
0.633

>  <template_color_score>  (2) 
0.159

>  <template_combo_score>  (2) 
0.396

$$$$
3GY2_combo_pose
     RDKit          3D

 21 22  0  0  0  0  0  0  0  0999 V2000
   43.5004   -5.0231   24.1774 N   0  0  0  0  0  0  0  0  0  0  0  0
   44.2010   -3.8007   24.3837 C   0  0  0  0  0  0  0  0  0  0  0  0
   44.8266   -3.2696   23.3805 N   0  0  0  0  0  0  0  0  0  0  0  0
   44.2336   -3.1349   25.6839 C   0  0  0  0  0  0  0  0  0  0  0  0
   44.1506   -3.9360   26.8090 C   0  0  0  0  0  0  0  0  0  0  0  0
   44.1806   -3.3155   28.0419 C   0  0  0  0  0  0  0  0  0  0  0  0
   44.2891   -1.9442   28.1761 C   0  0  0  0  0  0  0  0  0  0  0  0
   44.3090   -1.4290   29.5052 N   0  0  0  0  0  0  0  0  0  0  0  0
   43.4800   -0.6133   29.9872 N   0  0  0  0  0  0  0  0  0  0  0  0
   43.5364   -0.1302   31.3048 N   0  0  0  0  0  0  0  0  0  0  0  0
   43.2452   -1.0625   32.3466 C   0  0  0  0  0  0  0  0  0  0  0  0
   42.9307   -2.3615   32.0016 C   0  0  0  0  0  0  0  0  0  0  0  0
   42.6395   -3.3070   32.9777 C   0  0  0  0  0  0  0  0  0  0  0  0
   42.6718   -2.9181   34.3002 C   0  0  0  0  0  0  0  0  0  0  0  0
   42.3662   -3.9068   35.3424 C   0  0  0  0  0  0  0  0  0  0  0  0
   42.9961   -3.7533   36.6269 N   0  0  0  0  0  0  0  0  0  0  0  0
   41.5613   -4.8965   35.1470 N   0  0  0  0  0  0  0  0  0  0  0  0
   42.9877   -1.6082   34.6726 C   0  0  0  0  0  0  0  0  0  0  0  0
   43.2750   -0.6824   33.6731 C   0  0  0  0  0  0  0  0  0  0  0  0
   44.3722   -1.1406   27.0581 C   0  0  0  0  0  0  0  0  0  0  0  0
   44.3419   -1.7652   25.8238 C   0  0  0  0  0  0  0  0  0  0  0  0
  1  2  1  0
  2  3  2  0
  2  4  1  0
  4  5  2  0
  5  6  1  0
  6  7  2  0
  7  8  1  0
  8  9  2  0
  9 10  1  0
 10 11  1  0
 11 12  2  0
 12 13  1  0
 13 14  2  0
 14 15  1  0
 15 16  1  0
 15 17  2  0
 14 18  1  0
 18 19  2  0
  7 20  1  0
 20 21  2  0
 21  4  1  0
 19 11  1  0
M  CHG  2   3   1  17   1
M  END
>  <shape_align_shape_tanimoto>  (3) 
0.8024870616659624

>  <shape_align_color_tanimoto>  (3) 
0.087314465528117349

>  <metric>  (3) 
combo

>  <metric_score>  (3) 
0.445

>  <template_pid>  (3) 
3GY2

>  <template_shape_score>  (3) 
0.802

>  <template_color_score>  (3) 
0.087

>  <template_combo_score>  (3) 
0.445

$$$$
