1QKT_shape_pose
     RDKit          3D

 20 23  0  0  0  0  0  0  0  0999 V2000
    4.2495   -0.8610   -3.8878 C   0  0  0  0  0  0  0  0  0  0  0  0
    3.8850   -0.4855   -5.3051 C   0  0  2  0  0  0  0  0  0  0  0  0
    4.6649   -1.3172   -6.2912 C   0  0  0  0  0  0  0  0  0  0  0  0
    6.1149   -1.0102   -6.3224 C   0  0  0  0  0  0  0  0  0  0  0  0
    6.3735    0.4927   -6.4695 C   0  0  2  0  0  0  0  0  0  0  0  0
    7.7982    0.8079   -6.4756 C   0  0  0  0  0  0  0  0  0  0  0  0
    8.5908    0.2652   -7.4662 C   0  0  0  0  0  0  0  0  0  0  0  0
    9.9342    0.5065   -7.5487 C   0  0  0  0  0  0  0  0  0  0  0  0
   10.4993    1.3272   -6.5945 C   0  0  0  0  0  0  0  0  0  0  0  0
   11.8684    1.5961   -6.6469 O   0  0  0  0  0  0  0  0  0  0  0  0
    9.7591    1.8972   -5.5823 C   0  0  0  0  0  0  0  0  0  0  0  0
    8.3905    1.6297   -5.5281 C   0  0  0  0  0  0  0  0  0  0  0  0
    7.5822    2.2429   -4.4356 C   0  0  0  0  0  0  0  0  0  0  0  0
    6.1851    2.4755   -5.0173 C   0  0  0  0  0  0  0  0  0  0  0  0
    5.6527    1.1044   -5.2822 C   0  0  1  0  0  0  0  0  0  0  0  0
    4.2290    0.9658   -5.6083 C   0  0  2  0  0  0  0  0  0  0  0  0
    3.2215    1.6976   -4.8201 C   0  0  0  0  0  0  0  0  0  0  0  0
    1.9516    0.9478   -5.2497 C   0  0  0  0  0  0  0  0  0  0  0  0
    2.4198   -0.4838   -5.5433 C   0  0  2  0  0  0  0  0  0  0  0  0
    1.8027   -1.2839   -4.5810 O   0  0  0  0  0  0  0  0  0  0  0  0
  2  1  1  1
  2  3  1  0
  3  4  1  0
  5  4  1  1
  5  6  1  0
  6  7  2  0
  7  8  1  0
  8  9  2  0
  9 10  1  0
  9 11  1  0
 11 12  2  0
 12 13  1  0
 13 14  1  0
 15 14  1  6
 15 16  1  0
 16 17  1  1
 17 18  1  0
 18 19  1  0
 19 20  1  1
 16  2  1  0
 19  2  1  0
 15  5  1  0
 12  6  1  0
M  END
>  <shape_align_shape_tanimoto>  (1) 
0.79602949935113254

>  <shape_align_color_tanimoto>  (1) 
0.099519784833570074

>  <metric>  (1) 
shape

>  <metric_score>  (1) 
0.796

>  <template_pid>  (1) 
1QKT

>  <template_shape_score>  (1) 
0.796

>  <template_color_score>  (1) 
0.100

>  <template_combo_score>  (1) 
0.448

$$$$
1QKT_color_pose
     RDKit          3D

 20 23  0  0  0  0  0  0  0  0999 V2000
    8.8208    1.3765   -4.4227 C   0  0  0  0  0  0  0  0  0  0  0  0
    8.6169    1.6778   -5.8711 C   0  0  2  0  0  0  0  0  0  0  0  0
    7.5921    2.7541   -6.1182 C   0  0  0  0  0  0  0  0  0  0  0  0
    6.2092    2.3184   -5.7916 C   0  0  0  0  0  0  0  0  0  0  0  0
    5.8145    0.9743   -6.3160 C   0  0  2  0  0  0  0  0  0  0  0  0
    4.5183    0.5802   -5.7297 C   0  0  0  0  0  0  0  0  0  0  0  0
    3.6659    1.5037   -5.1826 C   0  0  0  0  0  0  0  0  0  0  0  0
    2.4487    1.0914   -4.6378 C   0  0  0  0  0  0  0  0  0  0  0  0
    2.1477   -0.2535   -4.6730 C   0  0  0  0  0  0  0  0  0  0  0  0
    0.9272   -0.6826   -4.1289 O   0  0  0  0  0  0  0  0  0  0  0  0
    2.9915   -1.1989   -5.2189 C   0  0  0  0  0  0  0  0  0  0  0  0
    4.2099   -0.7817   -5.7636 C   0  0  0  0  0  0  0  0  0  0  0  0
    5.1225   -1.7662   -6.3488 C   0  0  0  0  0  0  0  0  0  0  0  0
    6.5685   -1.4235   -6.2977 C   0  0  0  0  0  0  0  0  0  0  0  0
    6.9147   -0.0239   -5.9564 C   0  0  1  0  0  0  0  0  0  0  0  0
    8.1279    0.4645   -6.6614 C   0  0  2  0  0  0  0  0  0  0  0  0
    9.3120   -0.4192   -6.6369 C   0  0  0  0  0  0  0  0  0  0  0  0
   10.4760    0.5225   -6.7541 C   0  0  0  0  0  0  0  0  0  0  0  0
    9.9230    1.9328   -6.5345 C   0  0  2  0  0  0  0  0  0  0  0  0
   10.8583    2.5886   -5.7155 O   0  0  0  0  0  0  0  0  0  0  0  0
  2  1  1  1
  2  3  1  0
  3  4  1  0
  5  4  1  1
  5  6  1  0
  6  7  2  0
  7  8  1  0
  8  9  2  0
  9 10  1  0
  9 11  1  0
 11 12  2  0
 12 13  1  0
 13 14  1  0
 15 14  1  6
 15 16  1  0
 16 17  1  1
 17 18  1  0
 18 19  1  0
 19 20  1  1
 16  2  1  0
 19  2  1  0
 15  5  1  0
 12  6  1  0
M  END
>  <shape_align_shape_tanimoto>  (2) 
0.7229354785701757

>  <shape_align_color_tanimoto>  (2) 
0.11275444225736705

>  <metric>  (2) 
color

>  <metric_score>  (2) 
0.113

>  <template_pid>  (2) 
1QKT

>  <template_shape_score>  (2) 
0.723

>  <template_color_score>  (2) 
0.113

>  <template_combo_score>  (2) 
0.418

$$$$
1QKT_combo_pose
     RDKit          3D

 20 23  0  0  0  0  0  0  0  0999 V2000
    4.2495   -0.8610   -3.8878 C   0  0  0  0  0  0  0  0  0  0  0  0
    3.8850   -0.4855   -5.3051 C   0  0  2  0  0  0  0  0  0  0  0  0
    4.6649   -1.3172   -6.2912 C   0  0  0  0  0  0  0  0  0  0  0  0
    6.1149   -1.0102   -6.3224 C   0  0  0  0  0  0  0  0  0  0  0  0
    6.3735    0.4927   -6.4695 C   0  0  2  0  0  0  0  0  0  0  0  0
    7.7982    0.8079   -6.4756 C   0  0  0  0  0  0  0  0  0  0  0  0
    8.5908    0.2652   -7.4662 C   0  0  0  0  0  0  0  0  0  0  0  0
    9.9342    0.5065   -7.5487 C   0  0  0  0  0  0  0  0  0  0  0  0
   10.4993    1.3272   -6.5945 C   0  0  0  0  0  0  0  0  0  0  0  0
   11.8684    1.5961   -6.6469 O   0  0  0  0  0  0  0  0  0  0  0  0
    9.7591    1.8972   -5.5823 C   0  0  0  0  0  0  0  0  0  0  0  0
    8.3905    1.6297   -5.5281 C   0  0  0  0  0  0  0  0  0  0  0  0
    7.5822    2.2429   -4.4356 C   0  0  0  0  0  0  0  0  0  0  0  0
    6.1851    2.4755   -5.0173 C   0  0  0  0  0  0  0  0  0  0  0  0
    5.6527    1.1044   -5.2822 C   0  0  1  0  0  0  0  0  0  0  0  0
    4.2290    0.9658   -5.6083 C   0  0  2  0  0  0  0  0  0  0  0  0
    3.2215    1.6976   -4.8201 C   0  0  0  0  0  0  0  0  0  0  0  0
    1.9516    0.9478   -5.2497 C   0  0  0  0  0  0  0  0  0  0  0  0
    2.4198   -0.4838   -5.5433 C   0  0  2  0  0  0  0  0  0  0  0  0
    1.8027   -1.2839   -4.5810 O   0  0  0  0  0  0  0  0  0  0  0  0
  2  1  1  1
  2  3  1  0
  3  4  1  0
  5  4  1  1
  5  6  1  0
  6  7  2  0
  7  8  1  0
  8  9  2  0
  9 10  1  0
  9 11  1  0
 11 12  2  0
 12 13  1  0
 13 14  1  0
 15 14  1  6
 15 16  1  0
 16 17  1  1
 17 18  1  0
 18 19  1  0
 19 20  1  1
 16  2  1  0
 19  2  1  0
 15  5  1  0
 12  6  1  0
M  END
>  <shape_align_shape_tanimoto>  (3) 
0.79602949935113254

>  <shape_align_color_tanimoto>  (3) 
0.099519784833570074

>  <metric>  (3) 
combo

>  <metric_score>  (3) 
0.448

>  <template_pid>  (3) 
1QKT

>  <template_shape_score>  (3) 
0.796

>  <template_color_score>  (3) 
0.100

>  <template_combo_score>  (3) 
0.448

$$$$
