1WBG_shape_pose
     RDKit          3D

 14 15  0  0  0  0  0  0  0  0999 V2000
  -20.3749  -37.1046   17.0552 C   0  0  0  0  0  0  0  0  0  0  0  0
  -21.0488  -35.5150   16.4626 S   0  0  0  0  0  0  0  0  0  0  0  0
  -20.8739  -34.2765   17.7650 C   0  0  0  0  0  0  0  0  0  0  0  0
  -19.8179  -33.4621   17.9485 N   0  0  0  0  0  0  0  0  0  0  0  0
  -20.0775  -32.6951   19.0179 N   0  0  0  0  0  0  0  0  0  0  0  0
  -21.2989  -33.0477   19.4847 C   0  0  0  0  0  0  0  0  0  0  0  0
  -21.9289  -32.4240   20.6538 C   0  0  0  0  0  0  0  0  0  0  0  0
  -21.2879  -31.4070   21.3675 C   0  0  0  0  0  0  0  0  0  0  0  0
  -21.8968  -30.8265   22.4716 C   0  0  0  0  0  0  0  0  0  0  0  0
  -23.1483  -31.2766   22.8475 C   0  0  0  0  0  0  0  0  0  0  0  0
  -23.9482  -30.5623   24.2422 Cl  0  0  0  0  0  0  0  0  0  0  0  0
  -23.8149  -32.2748   22.1737 C   0  0  0  0  0  0  0  0  0  0  0  0
  -23.1777  -32.8372   21.0702 C   0  0  0  0  0  0  0  0  0  0  0  0
  -21.8131  -34.0316   18.7185 N   0  0  0  0  0  0  0  0  0  0  0  0
  1  2  1  0
  2  3  1  0
  3  4  2  0
  4  5  1  0
  5  6  2  0
  6  7  1  0
  7  8  2  0
  8  9  1  0
  9 10  2  0
 10 11  1  0
 10 12  1  0
 12 13  2  0
  6 14  1  0
 14  3  1  0
 13  7  1  0
M  END
>  <shape_align_shape_tanimoto>  (1) 
0.37291179125607909

>  <shape_align_color_tanimoto>  (1) 
0.063588760281418605

>  <metric>  (1) 
shape

>  <metric_score>  (1) 
0.373

>  <template_pid>  (1) 
1WBG

>  <template_shape_score>  (1) 
0.373

>  <template_color_score>  (1) 
0.064

>  <template_combo_score>  (1) 
0.218

$$$$
1WBG_color_pose
     RDKit          3D

 14 15  0  0  0  0  0  0  0  0999 V2000
  -22.8790  -36.0275   16.6049 C   0  0  0  0  0  0  0  0  0  0  0  0
  -21.1130  -35.6389   16.7256 S   0  0  0  0  0  0  0  0  0  0  0  0
  -20.8589  -34.5035   18.1063 C   0  0  0  0  0  0  0  0  0  0  0  0
  -19.6732  -34.0002   18.4934 N   0  0  0  0  0  0  0  0  0  0  0  0
  -19.8855  -33.1984   19.5506 N   0  0  0  0  0  0  0  0  0  0  0  0
  -21.2108  -33.2065   19.8181 C   0  0  0  0  0  0  0  0  0  0  0  0
  -21.8891  -32.4751   20.8842 C   0  0  0  0  0  0  0  0  0  0  0  0
  -23.2620  -32.6191   20.9900 C   0  0  0  0  0  0  0  0  0  0  0  0
  -23.9530  -31.9458   21.9853 C   0  0  0  0  0  0  0  0  0  0  0  0
  -23.2145  -31.1385   22.8502 C   0  0  0  0  0  0  0  0  0  0  0  0
  -24.0611  -30.2711   24.1232 Cl  0  0  0  0  0  0  0  0  0  0  0  0
  -21.8491  -31.0040   22.7338 C   0  0  0  0  0  0  0  0  0  0  0  0
  -21.1583  -31.6760   21.7403 C   0  0  0  0  0  0  0  0  0  0  0  0
  -21.8092  -34.0149   18.9226 N   0  0  0  0  0  0  0  0  0  0  0  0
  1  2  1  0
  2  3  1  0
  3  4  2  0
  4  5  1  0
  5  6  2  0
  6  7  1  0
  7  8  2  0
  8  9  1  0
  9 10  2  0
 10 11  1  0
 10 12  1  0
 12 13  2  0
  6 14  1  0
 14  3  1  0
 13  7  1  0
M  END
>  <shape_align_shape_tanimoto>  (2) 
0.34361104444869461

>  <shape_align_color_tanimoto>  (2) 
0.078569063519538157

>  <metric>  (2) 
color

>  <metric_score>  (2) 
0.079

>  <template_pid>  (2) 
1WBG

>  <template_shape_score>  (2) 
0.344

>  <template_color_score>  (2) 
0.079

>  <template_combo_score>  (2) 
0.211

$$$$
1WBG_combo_pose
     RDKit          3D

 14 15  0  0  0  0  0  0  0  0999 V2000
  -20.7244  -36.6068   17.5239 C   0  0  0  0  0  0  0  0  0  0  0  0
  -21.0739  -34.9160   16.9211 S   0  0  0  0  0  0  0  0  0  0  0  0
  -20.9133  -33.8389   18.3499 C   0  0  0  0  0  0  0  0  0  0  0  0
  -19.7734  -33.2282   18.7475 N   0  0  0  0  0  0  0  0  0  0  0  0
  -20.0884  -32.5238   19.8472 N   0  0  0  0  0  0  0  0  0  0  0  0
  -21.3998  -32.7022   20.1158 C   0  0  0  0  0  0  0  0  0  0  0  0
  -22.1144  -32.0828   21.2550 C   0  0  0  0  0  0  0  0  0  0  0  0
  -21.4408  -31.2562   22.1352 C   0  0  0  0  0  0  0  0  0  0  0  0
  -22.1028  -30.6684   23.2098 C   0  0  0  0  0  0  0  0  0  0  0  0
  -23.4448  -30.9536   23.3424 C   0  0  0  0  0  0  0  0  0  0  0  0
  -24.3027  -30.2155   24.7024 Cl  0  0  0  0  0  0  0  0  0  0  0  0
  -24.1366  -31.7754   22.4761 C   0  0  0  0  0  0  0  0  0  0  0  0
  -23.4621  -32.3622   21.3980 C   0  0  0  0  0  0  0  0  0  0  0  0
  -21.9209  -33.5275   19.1775 N   0  0  0  0  0  0  0  0  0  0  0  0
  1  2  1  0
  2  3  1  0
  3  4  2  0
  4  5  1  0
  5  6  2  0
  6  7  1  0
  7  8  2  0
  8  9  1  0
  9 10  2  0
 10 11  1  0
 10 12  1  0
 12 13  2  0
  6 14  1  0
 14  3  1  0
 13  7  1  0
M  END
>  <shape_align_shape_tanimoto>  (3) 
0.37010462414787976

>  <shape_align_color_tanimoto>  (3) 
0.070335999532760055

>  <metric>  (3) 
combo

>  <metric_score>  (3) 
0.220

>  <template_pid>  (3) 
1WBG

>  <template_shape_score>  (3) 
0.370

>  <template_color_score>  (3) 
0.070

>  <template_combo_score>  (3) 
0.220

$$$$
