6TEN_shape_pose
     RDKit          3D

 40 44  0  0  0  0  0  0  0  0999 V2000
   -0.7717    5.1407   51.4024 C   0  0  0  0  0  0  0  0  0  0  0  0
    0.5115    4.5981   51.1331 O   0  0  0  0  0  0  0  0  0  0  0  0
    0.8791    4.4012   49.8003 C   0  0  0  0  0  0  0  0  0  0  0  0
   -0.0223    4.7540   48.8773 N   0  0  0  0  0  0  0  0  0  0  0  0
    0.2345    4.5953   47.5580 C   0  0  0  0  0  0  0  0  0  0  0  0
   -0.7360    4.9800   46.6168 N   0  0  0  0  0  0  0  0  0  0  0  0
    1.4246    4.0741   47.2559 N   0  0  0  0  0  0  0  0  0  0  0  0
    2.3410    3.7170   48.1806 C   0  0  0  0  0  0  0  0  0  0  0  0
    3.5418    3.1295   47.7217 N   0  0  0  0  0  0  0  0  0  0  0  0
    4.7530    2.9448   48.4314 C   0  0  0  0  0  0  0  0  0  0  0  0
    5.0018    3.7062   49.5149 C   0  0  0  0  0  0  0  0  0  0  0  0
    6.2639    3.6998   50.0931 C   0  0  0  0  0  0  0  0  0  0  0  0
    6.5128    4.6654   51.5116 S   0  0  0  0  0  0  0  0  0  0  0  0
    6.5545    6.3681   51.1780 N   0  0  0  0  0  0  0  0  0  0  0  0
    7.8294    4.2544   52.1167 O   0  0  0  0  0  0  0  0  0  0  0  0
    5.4452    4.3417   52.5283 O   0  0  0  0  0  0  0  0  0  0  0  0
    7.2460    2.9309   49.5666 C   0  0  0  0  0  0  0  0  0  0  0  0
    6.9739    2.1645   48.4740 C   0  0  0  0  0  0  0  0  0  0  0  0
    5.7598    2.0879   47.8227 C   0  0  0  0  0  0  0  0  0  0  0  0
    5.2966    1.3118   46.8806 N   0  0  0  0  0  0  0  0  0  0  0  0
    4.7923    0.4575   45.8444 C   0  0  1  0  0  0  0  0  0  0  0  0
    5.5077   -0.8730   45.8200 C   0  0  0  0  0  0  0  0  0  0  0  0
    4.8708   -2.0678   46.1300 C   0  0  0  0  0  0  0  0  0  0  0  0
    5.5051   -3.2817   46.1305 C   0  0  0  0  0  0  0  0  0  0  0  0
    6.8383   -3.3893   45.8168 C   0  0  0  0  0  0  0  0  0  0  0  0
    7.4992   -2.2182   45.5030 C   0  0  0  0  0  0  0  0  0  0  0  0
    6.8454   -0.9778   45.5026 C   0  0  0  0  0  0  0  0  0  0  0  0
    7.8390   -0.0956   45.1415 O   0  0  0  0  0  0  0  0  0  0  0  0
    9.1253   -0.6808   45.1847 C   0  0  0  0  0  0  0  0  0  0  0  0
    9.7739   -0.2627   44.0529 F   0  0  0  0  0  0  0  0  0  0  0  0
    9.8380   -0.3845   46.3028 F   0  0  0  0  0  0  0  0  0  0  0  0
    8.8235   -2.0593   45.1476 O   0  0  0  0  0  0  0  0  0  0  0  0
    3.4069    0.1068   46.4727 C   0  0  0  0  0  0  0  0  0  0  0  0
    3.4261   -0.3808   47.7547 N   0  0  0  0  0  0  0  0  0  0  0  0
    2.2652   -0.6582   48.3865 C   0  0  0  0  0  0  0  0  0  0  0  0
    1.0487   -0.4676   47.7907 C   0  0  0  0  0  0  0  0  0  0  0  0
    1.0330    0.0313   46.4756 C   0  0  0  0  0  0  0  0  0  0  0  0
    2.2450    0.3149   45.8279 C   0  0  0  0  0  0  0  0  0  0  0  0
    2.1970    0.9395   44.1536 Cl  0  0  0  0  0  0  0  0  0  0  0  0
    2.1038    3.8694   49.5210 N   0  0  0  0  0  0  0  0  0  0  0  0
  1  2  1  0
  2  3  1  0
  3  4  2  0
  4  5  1  0
  5  6  1  0
  5  7  2  0
  7  8  1  0
  8  9  1  0
  9 10  1  0
 10 11  2  0
 11 12  1  0
 12 13  1  0
 13 14  1  0
 13 15  2  0
 13 16  2  0
 12 17  2  0
 17 18  1  0
 18 19  2  0
 19 20  1  0
 21 20  1  1
 21 22  1  0
 22 23  2  0
 23 24  1  0
 24 25  2  0
 25 26  1  0
 26 27  2  0
 27 28  1  0
 28 29  1  0
 29 30  1  0
 29 31  1  0
 29 32  1  0
 21 33  1  0
 33 34  2  0
 34 35  1  0
 35 36  2  0
 36 37  1  0
 37 38  2  0
 38 39  1  0
  8 40  2  0
 40  3  1  0
 19 10  1  0
 27 22  1  0
 38 33  1  0
 32 26  1  0
M  END
>  <shape_align_shape_tanimoto>  (1) 
0.50138205055065255

>  <shape_align_color_tanimoto>  (1) 
0.021427241181622883

>  <metric>  (1) 
shape

>  <metric_score>  (1) 
0.501

>  <template_pid>  (1) 
6TEN

>  <template_shape_score>  (1) 
0.501

>  <template_color_score>  (1) 
0.021

>  <template_combo_score>  (1) 
0.261

$$$$
6TEN_color_pose
     RDKit          3D

 40 44  0  0  0  0  0  0  0  0999 V2000
   13.7744    0.2421   45.5396 C   0  0  0  0  0  0  0  0  0  0  0  0
   12.5870    0.7105   46.1713 O   0  0  0  0  0  0  0  0  0  0  0  0
   11.3419    0.1768   45.8048 C   0  0  0  0  0  0  0  0  0  0  0  0
   11.2014   -0.7949   44.8483 N   0  0  0  0  0  0  0  0  0  0  0  0
    9.9543   -1.2654   44.5458 C   0  0  0  0  0  0  0  0  0  0  0  0
    9.8766   -2.2837   43.5329 N   0  0  0  0  0  0  0  0  0  0  0  0
    8.8767   -0.7727   45.1871 N   0  0  0  0  0  0  0  0  0  0  0  0
    8.9624    0.1717   46.1234 C   0  0  0  0  0  0  0  0  0  0  0  0
    7.8774    0.7535   46.8542 N   0  0  0  0  0  0  0  0  0  0  0  0
    6.4909    0.4312   46.7188 C   0  0  0  0  0  0  0  0  0  0  0  0
    5.9890   -0.5222   45.8338 C   0  0  0  0  0  0  0  0  0  0  0  0
    4.6221   -0.8251   45.7135 C   0  0  0  0  0  0  0  0  0  0  0  0
    4.0306   -2.0480   44.5713 S   0  0  0  0  0  0  0  0  0  0  0  0
    3.9726   -3.6386   45.3191 N   0  0  0  0  0  0  0  0  0  0  0  0
    2.5742   -1.7298   44.1965 O   0  0  0  0  0  0  0  0  0  0  0  0
    4.9370   -2.0896   43.3799 O   0  0  0  0  0  0  0  0  0  0  0  0
    3.6772   -0.1699   46.4936 C   0  0  0  0  0  0  0  0  0  0  0  0
    4.1522    0.7892   47.3879 C   0  0  0  0  0  0  0  0  0  0  0  0
    5.5166    1.0940   47.5104 C   0  0  0  0  0  0  0  0  0  0  0  0
    5.8596    2.0979   48.4821 N   0  0  0  0  0  0  0  0  0  0  0  0
    4.8334    2.7904   49.2995 C   0  0  1  0  0  0  0  0  0  0  0  0
    5.4463    3.6273   50.3846 C   0  0  0  0  0  0  0  0  0  0  0  0
    4.9808    3.4248   51.6960 C   0  0  0  0  0  0  0  0  0  0  0  0
    5.4542    4.1320   52.7932 C   0  0  0  0  0  0  0  0  0  0  0  0
    6.4418    5.0948   52.5966 C   0  0  0  0  0  0  0  0  0  0  0  0
    6.8934    5.2849   51.2948 C   0  0  0  0  0  0  0  0  0  0  0  0
    6.4274    4.5842   50.1922 C   0  0  0  0  0  0  0  0  0  0  0  0
    7.1045    5.0366   49.0567 O   0  0  0  0  0  0  0  0  0  0  0  0
    7.7538    6.2693   49.3778 C   0  0  0  0  0  0  0  0  0  0  0  0
    7.0400    7.3954   48.9595 F   0  0  0  0  0  0  0  0  0  0  0  0
    9.0068    6.2327   48.7602 F   0  0  0  0  0  0  0  0  0  0  0  0
    7.8736    6.1797   50.8049 O   0  0  0  0  0  0  0  0  0  0  0  0
    3.9109    3.6444   48.5095 C   0  0  0  0  0  0  0  0  0  0  0  0
    2.7075    3.9629   49.1145 N   0  0  0  0  0  0  0  0  0  0  0  0
    1.7677    4.7325   48.5218 C   0  0  0  0  0  0  0  0  0  0  0  0
    1.9430    5.2680   47.2445 C   0  0  0  0  0  0  0  0  0  0  0  0
    3.1623    4.9545   46.6130 C   0  0  0  0  0  0  0  0  0  0  0  0
    4.1252    4.1510   47.2503 C   0  0  0  0  0  0  0  0  0  0  0  0
    5.6067    3.8247   46.3598 Cl  0  0  0  0  0  0  0  0  0  0  0  0
   10.2289    0.6400   46.4213 N   0  0  0  0  0  0  0  0  0  0  0  0
  1  2  1  0
  2  3  1  0
  3  4  2  0
  4  5  1  0
  5  6  1  0
  5  7  2  0
  7  8  1  0
  8  9  1  0
  9 10  1  0
 10 11  2  0
 11 12  1  0
 12 13  1  0
 13 14  1  0
 13 15  2  0
 13 16  2  0
 12 17  2  0
 17 18  1  0
 18 19  2  0
 19 20  1  0
 21 20  1  6
 21 22  1  0
 22 23  2  0
 23 24  1  0
 24 25  2  0
 25 26  1  0
 26 27  2  0
 27 28  1  0
 28 29  1  0
 29 30  1  0
 29 31  1  0
 29 32  1  0
 21 33  1  0
 33 34  2  0
 34 35  1  0
 35 36  2  0
 36 37  1  0
 37 38  2  0
 38 39  1  0
  8 40  2  0
 40  3  1  0
 19 10  1  0
 27 22  1  0
 38 33  1  0
 32 26  1  0
M  END
>  <shape_align_shape_tanimoto>  (2) 
0.43967063257470335

>  <shape_align_color_tanimoto>  (2) 
0.13290001532028575

>  <metric>  (2) 
color

>  <metric_score>  (2) 
0.133

>  <template_pid>  (2) 
6TEN

>  <template_shape_score>  (2) 
0.440

>  <template_color_score>  (2) 
0.133

>  <template_combo_score>  (2) 
0.286

$$$$
6TEN_combo_pose
     RDKit          3D

 40 44  0  0  0  0  0  0  0  0999 V2000
    9.3088    7.9418   49.8005 C   0  0  0  0  0  0  0  0  0  0  0  0
    8.3911    7.0896   50.0966 O   0  0  0  0  0  0  0  0  0  0  0  0
    7.4739    6.2980   50.4806 C   0  0  0  0  0  0  0  0  0  0  0  0
    6.8723    6.4534   51.7141 N   0  0  0  0  0  0  0  0  0  0  0  0
    5.9035    5.6027   52.0957 C   0  0  0  0  0  0  0  0  0  0  0  0
    5.3060    5.7924   53.3845 N   0  0  0  0  0  0  0  0  0  0  0  0
    5.5174    4.6132   51.2979 N   0  0  0  0  0  0  0  0  0  0  0  0
    6.0703    4.4144   50.0815 C   0  0  0  0  0  0  0  0  0  0  0  0
    5.6186    3.3446   49.2162 N   0  0  0  0  0  0  0  0  0  0  0  0
    6.0168    2.0082   49.4067 C   0  0  0  0  0  0  0  0  0  0  0  0
    6.7387    1.7397   50.5633 C   0  0  0  0  0  0  0  0  0  0  0  0
    7.1643    0.4788   50.9094 C   0  0  0  0  0  0  0  0  0  0  0  0
    8.0620    0.2008   52.3802 S   0  0  0  0  0  0  0  0  0  0  0  0
    9.7343    0.3942   52.1075 N   0  0  0  0  0  0  0  0  0  0  0  0
    7.8325   -1.2221   52.8149 O   0  0  0  0  0  0  0  0  0  0  0  0
    7.6264    1.0806   53.5102 O   0  0  0  0  0  0  0  0  0  0  0  0
    6.8401   -0.5417   50.0429 C   0  0  0  0  0  0  0  0  0  0  0  0
    6.1272   -0.2757   48.9001 C   0  0  0  0  0  0  0  0  0  0  0  0
    5.6821    0.9679   48.5132 C   0  0  0  0  0  0  0  0  0  0  0  0
    5.0086    1.2673   47.3223 N   0  0  0  0  0  0  0  0  0  0  0  0
    4.5307    0.4714   46.2535 C   0  0  1  0  0  0  0  0  0  0  0  0
    5.2315   -0.7603   45.8860 C   0  0  0  0  0  0  0  0  0  0  0  0
    4.5835   -1.9962   45.7277 C   0  0  0  0  0  0  0  0  0  0  0  0
    5.2659   -3.1223   45.3457 C   0  0  0  0  0  0  0  0  0  0  0  0
    6.6129   -3.1389   45.0896 C   0  0  0  0  0  0  0  0  0  0  0  0
    7.2767   -1.9177   45.2408 C   0  0  0  0  0  0  0  0  0  0  0  0
    6.5952   -0.7917   45.6230 C   0  0  0  0  0  0  0  0  0  0  0  0
    7.5610    0.2171   45.6707 O   0  0  0  0  0  0  0  0  0  0  0  0
    8.8412   -0.3780   45.8136 C   0  0  0  0  0  0  0  0  0  0  0  0
    9.7760    0.4160   45.2100 F   0  0  0  0  0  0  0  0  0  0  0  0
    9.1617   -0.6784   47.1172 F   0  0  0  0  0  0  0  0  0  0  0  0
    8.6325   -1.5785   45.0626 O   0  0  0  0  0  0  0  0  0  0  0  0
    3.0686    0.3610   46.2172 C   0  0  0  0  0  0  0  0  0  0  0  0
    2.4143    0.9535   45.1697 N   0  0  0  0  0  0  0  0  0  0  0  0
    1.0823    0.9111   45.0299 C   0  0  0  0  0  0  0  0  0  0  0  0
    0.2389    0.2640   45.9305 C   0  0  0  0  0  0  0  0  0  0  0  0
    0.8819   -0.3400   46.9949 C   0  0  0  0  0  0  0  0  0  0  0  0
    2.2671   -0.2811   47.1180 C   0  0  0  0  0  0  0  0  0  0  0  0
    2.9420   -1.0673   48.5197 Cl  0  0  0  0  0  0  0  0  0  0  0  0
    7.0325    5.2658   49.7140 N   0  0  0  0  0  0  0  0  0  0  0  0
  1  2  1  0
  2  3  1  0
  3  4  2  0
  4  5  1  0
  5  6  1  0
  5  7  2  0
  7  8  1  0
  8  9  1  0
  9 10  1  0
 10 11  2  0
 11 12  1  0
 12 13  1  0
 13 14  1  0
 13 15  2  0
 13 16  2  0
 12 17  2  0
 17 18  1  0
 18 19  2  0
 19 20  1  0
 21 20  1  1
 21 22  1  0
 22 23  2  0
 23 24  1  0
 24 25  2  0
 25 26  1  0
 26 27  2  0
 27 28  1  0
 28 29  1  0
 29 30  1  0
 29 31  1  0
 29 32  1  0
 21 33  1  0
 33 34  2  0
 34 35  1  0
 35 36  2  0
 36 37  1  0
 37 38  2  0
 38 39  1  0
  8 40  2  0
 40  3  1  0
 19 10  1  0
 27 22  1  0
 38 33  1  0
 32 26  1  0
M  END
>  <shape_align_shape_tanimoto>  (3) 
0.4821634044165572

>  <shape_align_color_tanimoto>  (3) 
0.093036327418037829

>  <metric>  (3) 
combo

>  <metric_score>  (3) 
0.288

>  <template_pid>  (3) 
6TEN

>  <template_shape_score>  (3) 
0.482

>  <template_color_score>  (3) 
0.093

>  <template_combo_score>  (3) 
0.288

$$$$
