6S56_shape_pose
     RDKit          3D

 33 36  0  0  0  0  0  0  0  0999 V2000
    2.2900  -27.8210  -23.4940 C   0  0  0  0  0  0  0  0  0  0  0  0
    1.2257  -28.1046  -22.5883 N   0  0  0  0  0  0  0  0  0  0  0  0
    1.4832  -27.6438  -21.2396 C   0  0  0  0  0  0  0  0  0  0  0  0
   -0.3091  -27.5701  -23.1669 S   0  0  0  0  0  0  0  0  0  0  0  0
   -0.2065  -26.0864  -23.4586 O   0  0  0  0  0  0  0  0  0  0  0  0
   -1.3863  -27.7618  -22.1677 O   0  0  0  0  0  0  0  0  0  0  0  0
   -0.6966  -28.3888  -24.6469 C   0  0  0  0  0  0  0  0  0  0  0  0
   -0.9111  -27.6905  -25.8324 C   0  0  0  0  0  0  0  0  0  0  0  0
   -1.2177  -28.3678  -26.9945 C   0  0  0  0  0  0  0  0  0  0  0  0
   -1.4194  -27.5419  -28.1622 N   0  0  0  0  0  0  0  0  0  0  0  0
   -0.2659  -27.2761  -28.9373 C   0  0  0  0  0  0  0  0  0  0  0  0
    0.8271  -27.7679  -28.5608 O   0  0  0  0  0  0  0  0  0  0  0  0
   -0.4225  -26.4334  -30.1449 C   0  0  0  0  0  0  0  0  0  0  0  0
    0.8373  -26.2451  -30.8388 N   0  0  0  0  0  0  0  0  0  0  0  0
    1.4275  -27.0244  -31.8724 C   0  0  0  0  0  0  0  0  0  0  0  0
    0.9218  -28.0648  -32.3821 O   0  0  0  0  0  0  0  0  0  0  0  0
    2.6881  -26.4233  -32.2296 N   0  0  0  0  0  0  0  0  0  0  0  0
    3.0916  -25.6175  -31.0794 C   0  0  2  0  0  0  0  0  0  0  0  0
    3.9166  -24.4842  -31.6317 C   0  0  0  0  0  0  0  0  0  0  0  0
    4.8507  -23.8423  -30.6756 C   0  0  0  0  0  0  0  0  0  0  0  0
    4.6947  -24.2180  -29.2413 C   0  0  0  0  0  0  0  0  0  0  0  0
    4.6129  -25.7022  -29.1625 C   0  0  0  0  0  0  0  0  0  0  0  0
    5.3204  -26.4082  -28.1897 C   0  0  0  0  0  0  0  0  0  0  0  0
    5.2618  -27.7803  -28.0955 C   0  0  0  0  0  0  0  0  0  0  0  0
    4.4691  -28.4863  -29.0027 C   0  0  0  0  0  0  0  0  0  0  0  0
    3.7559  -27.7887  -29.9817 C   0  0  0  0  0  0  0  0  0  0  0  0
    3.8191  -26.4138  -30.0704 C   0  0  0  0  0  0  0  0  0  0  0  0
    1.7607  -25.1717  -30.5832 C   0  0  0  0  0  0  0  0  0  0  0  0
    1.4335  -24.0852  -30.0375 O   0  0  0  0  0  0  0  0  0  0  0  0
   -1.3281  -29.7425  -27.0541 C   0  0  0  0  0  0  0  0  0  0  0  0
   -1.1099  -30.4266  -25.8567 C   0  0  0  0  0  0  0  0  0  0  0  0
   -0.8023  -29.7645  -24.6853 C   0  0  0  0  0  0  0  0  0  0  0  0
   -0.5392  -30.6806  -23.2127 Cl  0  0  0  0  0  0  0  0  0  0  0  0
  1  2  1  0
  2  3  1  0
  2  4  1  0
  4  5  2  0
  4  6  2  0
  4  7  1  0
  7  8  2  0
  8  9  1  0
  9 10  1  0
 10 11  1  0
 11 12  2  0
 11 13  1  0
 13 14  1  0
 14 15  1  0
 15 16  2  0
 15 17  1  0
 17 18  1  0
 18 19  1  6
 19 20  1  0
 20 21  1  0
 21 22  1  0
 22 23  2  0
 23 24  1  0
 24 25  2  0
 25 26  1  0
 26 27  2  0
 18 28  1  0
 28 29  2  0
  9 30  2  0
 30 31  1  0
 31 32  2  0
 32 33  1  0
 32  7  1  0
 28 14  1  0
 27 18  1  0
 27 22  1  0
M  END
>  <shape_align_shape_tanimoto>  (1) 
0.67009183218914392

>  <shape_align_color_tanimoto>  (1) 
0.12881206337103313

>  <metric>  (1) 
shape

>  <metric_score>  (1) 
0.670

>  <template_pid>  (1) 
6S56

>  <template_shape_score>  (1) 
0.670

>  <template_color_score>  (1) 
0.129

>  <template_combo_score>  (1) 
0.399

$$$$
6S56_color_pose
     RDKit          3D

 33 36  0  0  0  0  0  0  0  0999 V2000
    3.1659  -27.9031  -25.1152 C   0  0  0  0  0  0  0  0  0  0  0  0
    3.0270  -29.3032  -24.7939 N   0  0  0  0  0  0  0  0  0  0  0  0
    4.2539  -29.7506  -24.1705 C   0  0  0  0  0  0  0  0  0  0  0  0
    1.6742  -29.5203  -23.7848 S   0  0  0  0  0  0  0  0  0  0  0  0
    1.5714  -31.0043  -23.4751 O   0  0  0  0  0  0  0  0  0  0  0  0
    1.8329  -28.7401  -22.5138 O   0  0  0  0  0  0  0  0  0  0  0  0
    0.1761  -29.0497  -24.5062 C   0  0  0  0  0  0  0  0  0  0  0  0
    0.0863  -28.5511  -25.8136 C   0  0  0  0  0  0  0  0  0  0  0  0
   -1.0821  -28.1835  -26.3860 C   0  0  0  0  0  0  0  0  0  0  0  0
   -1.2674  -27.6742  -27.6875 N   0  0  0  0  0  0  0  0  0  0  0  0
   -0.2513  -27.4521  -28.6430 C   0  0  0  0  0  0  0  0  0  0  0  0
    0.9558  -27.6936  -28.4216 O   0  0  0  0  0  0  0  0  0  0  0  0
   -0.5864  -26.9058  -29.9911 C   0  0  0  0  0  0  0  0  0  0  0  0
    0.6045  -26.7596  -30.8046 N   0  0  0  0  0  0  0  0  0  0  0  0
    1.1904  -27.7141  -31.6874 C   0  0  0  0  0  0  0  0  0  0  0  0
    0.7463  -28.8742  -31.9037 O   0  0  0  0  0  0  0  0  0  0  0  0
    2.3500  -27.0851  -32.2507 N   0  0  0  0  0  0  0  0  0  0  0  0
    2.6971  -25.9024  -31.5402 C   0  0  2  0  0  0  0  0  0  0  0  0
    3.2343  -24.7964  -32.3921 C   0  0  0  0  0  0  0  0  0  0  0  0
    3.4024  -23.5502  -31.6028 C   0  0  0  0  0  0  0  0  0  0  0  0
    4.0196  -23.7093  -30.2630 C   0  0  0  0  0  0  0  0  0  0  0  0
    4.3255  -25.1036  -29.8921 C   0  0  0  0  0  0  0  0  0  0  0  0
    5.2756  -25.3197  -28.9036 C   0  0  0  0  0  0  0  0  0  0  0  0
    5.6199  -26.5927  -28.4979 C   0  0  0  0  0  0  0  0  0  0  0  0
    4.9881  -27.6535  -29.1075 C   0  0  0  0  0  0  0  0  0  0  0  0
    4.0382  -27.4718  -30.0946 C   0  0  0  0  0  0  0  0  0  0  0  0
    3.6987  -26.1997  -30.4952 C   0  0  0  0  0  0  0  0  0  0  0  0
    1.4240  -25.5791  -30.8568 C   0  0  0  0  0  0  0  0  0  0  0  0
    1.0501  -24.4716  -30.3733 O   0  0  0  0  0  0  0  0  0  0  0  0
   -2.2350  -28.3217  -25.6052 C   0  0  0  0  0  0  0  0  0  0  0  0
   -2.1527  -28.8110  -24.3203 C   0  0  0  0  0  0  0  0  0  0  0  0
   -0.9791  -29.1822  -23.7401 C   0  0  0  0  0  0  0  0  0  0  0  0
   -0.9131  -29.8005  -22.1028 Cl  0  0  0  0  0  0  0  0  0  0  0  0
  1  2  1  0
  2  3  1  0
  2  4  1  0
  4  5  2  0
  4  6  2  0
  4  7  1  0
  7  8  2  0
  8  9  1  0
  9 10  1  0
 10 11  1  0
 11 12  2  0
 11 13  1  0
 13 14  1  0
 14 15  1  0
 15 16  2  0
 15 17  1  0
 17 18  1  0
 18 19  1  6
 19 20  1  0
 20 21  1  0
 21 22  1  0
 22 23  2  0
 23 24  1  0
 24 25  2  0
 25 26  1  0
 26 27  2  0
 18 28  1  0
 28 29  2  0
  9 30  2  0
 30 31  1  0
 31 32  2  0
 32 33  1  0
 32  7  1  0
 28 14  1  0
 27 18  1  0
 27 22  1  0
M  END
>  <shape_align_shape_tanimoto>  (2) 
0.64352153561569814

>  <shape_align_color_tanimoto>  (2) 
0.13652504252123898

>  <metric>  (2) 
color

>  <metric_score>  (2) 
0.137

>  <template_pid>  (2) 
6S56

>  <template_shape_score>  (2) 
0.644

>  <template_color_score>  (2) 
0.137

>  <template_combo_score>  (2) 
0.390

$$$$
6S56_combo_pose
     RDKit          3D

 33 36  0  0  0  0  0  0  0  0999 V2000
    1.6948  -28.6146  -21.9910 C   0  0  0  0  0  0  0  0  0  0  0  0
    1.1693  -27.3868  -22.4208 N   0  0  0  0  0  0  0  0  0  0  0  0
    2.0696  -26.5478  -23.1524 C   0  0  0  0  0  0  0  0  0  0  0  0
   -0.4129  -27.3700  -22.9813 S   0  0  0  0  0  0  0  0  0  0  0  0
   -0.7482  -25.9243  -23.3558 O   0  0  0  0  0  0  0  0  0  0  0  0
   -1.4161  -27.7272  -21.8960 O   0  0  0  0  0  0  0  0  0  0  0  0
   -0.7429  -28.3421  -24.3856 C   0  0  0  0  0  0  0  0  0  0  0  0
   -0.9443  -27.7202  -25.6118 C   0  0  0  0  0  0  0  0  0  0  0  0
   -1.1629  -28.4057  -26.7774 C   0  0  0  0  0  0  0  0  0  0  0  0
   -1.3634  -27.6961  -28.0093 N   0  0  0  0  0  0  0  0  0  0  0  0
   -0.2412  -27.3774  -28.8240 C   0  0  0  0  0  0  0  0  0  0  0  0
    0.9237  -27.7247  -28.4518 O   0  0  0  0  0  0  0  0  0  0  0  0
   -0.4569  -26.6522  -30.0797 C   0  0  0  0  0  0  0  0  0  0  0  0
    0.7613  -26.4025  -30.7908 N   0  0  0  0  0  0  0  0  0  0  0  0
    1.3729  -27.2399  -31.7680 C   0  0  0  0  0  0  0  0  0  0  0  0
    0.9147  -28.3422  -32.1505 O   0  0  0  0  0  0  0  0  0  0  0  0
    2.5652  -26.6000  -32.2086 N   0  0  0  0  0  0  0  0  0  0  0  0
    2.9608  -25.5728  -31.2332 C   0  0  2  0  0  0  0  0  0  0  0  0
    3.5152  -24.3640  -31.9108 C   0  0  0  0  0  0  0  0  0  0  0  0
    4.5767  -23.6376  -31.1539 C   0  0  0  0  0  0  0  0  0  0  0  0
    4.5810  -23.9074  -29.6695 C   0  0  0  0  0  0  0  0  0  0  0  0
    4.6381  -25.3715  -29.4080 C   0  0  0  0  0  0  0  0  0  0  0  0
    5.4584  -25.8985  -28.4310 C   0  0  0  0  0  0  0  0  0  0  0  0
    5.4965  -27.2549  -28.2059 C   0  0  0  0  0  0  0  0  0  0  0  0
    4.6980  -28.0700  -28.9778 C   0  0  0  0  0  0  0  0  0  0  0  0
    3.8769  -27.5243  -29.9582 C   0  0  0  0  0  0  0  0  0  0  0  0
    3.8207  -26.1652  -30.2036 C   0  0  0  0  0  0  0  0  0  0  0  0
    1.6054  -25.2595  -30.6581 C   0  0  0  0  0  0  0  0  0  0  0  0
    1.2158  -24.1846  -30.1317 O   0  0  0  0  0  0  0  0  0  0  0  0
   -1.1925  -29.7852  -26.7791 C   0  0  0  0  0  0  0  0  0  0  0  0
   -0.9969  -30.4395  -25.5775 C   0  0  0  0  0  0  0  0  0  0  0  0
   -0.7764  -29.7148  -24.4003 C   0  0  0  0  0  0  0  0  0  0  0  0
   -0.6090  -30.6462  -22.9379 Cl  0  0  0  0  0  0  0  0  0  0  0  0
  1  2  1  0
  2  3  1  0
  2  4  1  0
  4  5  2  0
  4  6  2  0
  4  7  1  0
  7  8  2  0
  8  9  1  0
  9 10  1  0
 10 11  1  0
 11 12  2  0
 11 13  1  0
 13 14  1  0
 14 15  1  0
 15 16  2  0
 15 17  1  0
 17 18  1  0
 18 19  1  6
 19 20  1  0
 20 21  1  0
 21 22  1  0
 22 23  2  0
 23 24  1  0
 24 25  2  0
 25 26  1  0
 26 27  2  0
 18 28  1  0
 28 29  2  0
  9 30  2  0
 30 31  1  0
 31 32  2  0
 32 33  1  0
 32  7  1  0
 28 14  1  0
 27 18  1  0
 27 22  1  0
M  END
>  <shape_align_shape_tanimoto>  (3) 
0.67007413216948331

>  <shape_align_color_tanimoto>  (3) 
0.1339034410118588

>  <metric>  (3) 
combo

>  <metric_score>  (3) 
0.402

>  <template_pid>  (3) 
6S56

>  <template_shape_score>  (3) 
0.670

>  <template_color_score>  (3) 
0.134

>  <template_combo_score>  (3) 
0.402

$$$$
