2X4O_shape_pose
     RDKit          3D

 68 68  0  0  0  0  0  0  0  0999 V2000
    7.8390   -7.6673   10.8468 C   0  0  0  0  0  0  0  0  0  0  0  0
    7.0835   -7.8553   12.1066 C   0  0  0  0  0  0  0  0  0  0  0  0
    7.1467   -9.3796   12.4198 C   0  0  0  0  0  0  0  0  0  0  0  0
    5.7002   -7.3913   12.2398 C   0  0  0  0  0  0  0  0  0  0  0  0
    5.4557   -5.8792   12.0682 C   0  0  2  0  0  0  0  0  0  0  0  0
    4.0032   -5.7139   12.3373 N   0  0  0  0  0  0  0  0  0  0  0  0
    3.6164   -5.0687   13.5322 C   0  0  0  0  0  0  0  0  0  0  0  0
    4.5718   -4.6600   14.2842 O   0  0  0  0  0  0  0  0  0  0  0  0
    2.2528   -4.8234   14.0057 C   0  0  1  0  0  0  0  0  0  0  0  0
    1.2766   -5.2537   13.0279 N   0  0  0  0  0  0  0  0  0  0  0  0
   -0.0251   -4.6575   12.8973 C   0  0  0  0  0  0  0  0  0  0  0  0
   -0.4011   -3.7009   13.6512 O   0  0  0  0  0  0  0  0  0  0  0  0
   -0.9097   -5.2233   11.8402 C   0  0  1  0  0  0  0  0  0  0  0  0
   -2.3004   -4.7893   11.9638 N   0  0  0  0  0  0  0  0  0  0  0  0
   -3.2667   -5.7768   12.1752 C   0  0  0  0  0  0  0  0  0  0  0  0
   -2.8579   -7.0016   12.2514 O   0  0  0  0  0  0  0  0  0  0  0  0
   -4.7369   -5.6141   12.3341 C   0  0  2  0  0  0  0  0  0  0  0  0
   -5.2154   -4.4020   13.0030 C   0  0  0  0  0  0  0  0  0  0  0  0
   -4.6616   -4.1252   14.6853 S   0  0  0  0  0  0  0  0  0  0  0  0
   -5.3115   -6.8897   12.7931 N   0  0  0  0  0  0  0  0  0  0  0  0
   -4.7279   -7.4379   13.9607 C   0  0  0  0  0  0  0  0  0  0  0  0
   -3.7845   -6.8341   14.6071 O   0  0  0  0  0  0  0  0  0  0  0  0
   -5.1161   -8.7512   14.5620 C   0  0  2  0  0  0  0  0  0  0  0  0
   -6.5354   -9.0908   14.6121 C   0  0  0  0  0  0  0  0  0  0  0  0
   -7.5019   -8.2504   15.3570 C   0  0  0  0  0  0  0  0  0  0  0  0
   -7.6093   -6.8188   14.9223 C   0  0  0  0  0  0  0  0  0  0  0  0
   -8.9022   -8.8532   15.0028 C   0  0  0  0  0  0  0  0  0  0  0  0
   -4.3568   -9.0583   15.7221 N   0  0  0  0  0  0  0  0  0  0  0  0
   -4.3337   -8.3535   16.9553 C   0  0  0  0  0  0  0  0  0  0  0  0
   -5.0997   -7.3223   17.0391 O   0  0  0  0  0  0  0  0  0  0  0  0
   -3.5374   -8.6652   18.1400 C   0  0  2  0  0  0  0  0  0  0  0  0
   -3.3611  -10.1260   18.3548 C   0  0  0  0  0  0  0  0  0  0  0  0
   -4.5264  -10.5208   19.2376 C   0  0  0  0  0  0  0  0  0  0  0  0
   -4.7296   -9.3090   20.1441 C   0  0  0  0  0  0  0  0  0  0  0  0
   -4.1760   -8.2024   19.3969 N   0  0  0  0  0  0  0  0  0  0  0  0
   -4.1960   -6.8347   19.7511 C   0  0  0  0  0  0  0  0  0  0  0  0
   -3.6784   -6.0523   18.8101 O   0  0  0  0  0  0  0  0  0  0  0  0
   -4.6533   -6.0857   20.8986 C   0  0  1  0  0  0  0  0  0  0  0  0
   -4.8345   -4.6484   20.4117 N   0  0  0  0  0  0  0  0  0  0  0  0
   -4.5473   -3.6048   21.3402 C   0  0  0  0  0  0  0  0  0  0  0  0
   -4.1558   -3.7793   22.5078 O   0  0  0  0  0  0  0  0  0  0  0  0
   -4.7485   -2.1734   20.8667 C   0  0  2  0  0  0  0  0  0  0  0  0
   -3.4688   -1.7036   20.2298 C   0  0  0  0  0  0  0  0  0  0  0  0
   -2.9815   -2.4880   19.0635 C   0  0  0  0  0  0  0  0  0  0  0  0
   -3.9026   -2.5649   17.8838 C   0  0  0  0  0  0  0  0  0  0  0  0
   -1.7064   -1.8018   18.5632 C   0  0  0  0  0  0  0  0  0  0  0  0
   -4.8972   -1.3240   22.0742 N   0  0  0  0  0  0  0  0  0  0  0  0
   -6.2002   -0.8328   22.3121 C   0  0  0  0  0  0  0  0  0  0  0  0
   -7.0886   -1.1826   21.4406 O   0  0  0  0  0  0  0  0  0  0  0  0
   -6.6570    0.0056   23.4094 C   0  0  1  0  0  0  0  0  0  0  0  0
   -5.5955    0.4265   24.3277 N   0  0  0  0  0  0  0  0  0  0  0  0
   -7.4785    1.2072   23.0423 C   0  0  0  0  0  0  0  0  0  0  0  0
   -8.7368    0.8773   22.2845 C   0  0  0  0  0  0  0  0  0  0  0  0
   -9.6572   -0.0476   23.0379 C   0  0  0  0  0  0  0  0  0  0  0  0
  -10.8760   -0.3025   22.1413 C   0  0  0  0  0  0  0  0  0  0  0  0
  -11.7866   -1.2078   22.8445 N   0  0  0  0  0  0  0  0  0  0  0  0
   -5.9748   -6.4624   21.5544 C   0  0  1  0  0  0  0  0  0  0  0  0
   -5.6745   -7.5714   22.5738 C   0  0  0  0  0  0  0  0  0  0  0  0
   -6.2519   -5.3636   22.4412 O   0  0  0  0  0  0  0  0  0  0  0  0
   -0.3335   -4.7203   10.5006 C   0  0  0  0  0  0  0  0  0  0  0  0
   -0.3490   -3.2010   10.4741 C   0  0  0  0  0  0  0  0  0  0  0  0
   -1.0485   -5.3175    9.3276 C   0  0  0  0  0  0  0  0  0  0  0  0
    2.0682   -5.6805   15.2938 C   0  0  1  0  0  0  0  0  0  0  0  0
    0.8449   -5.2662   16.0345 C   0  0  0  0  0  0  0  0  0  0  0  0
    2.2200   -7.0007   14.9981 O   0  0  0  0  0  0  0  0  0  0  0  0
    5.5814   -5.5635   10.6283 C   0  0  0  0  0  0  0  0  0  0  0  0
    5.5652   -6.3518    9.6722 O   0  0  0  0  0  0  0  0  0  0  0  0
    5.7406   -4.1892   10.3082 O   0  0  0  0  0  0  0  0  0  0  0  0
  1  2  1  0
  2  3  1  0
  2  4  1  0
  5  4  1  6
  5  6  1  0
  6  7  1  0
  7  8  2  0
  7  9  1  0
  9 10  1  6
 10 11  1  0
 11 12  2  0
 11 13  1  0
 13 14  1  1
 14 15  1  0
 15 16  2  0
 15 17  1  0
 17 18  1  1
 18 19  1  0
 17 20  1  0
 20 21  1  0
 21 22  2  0
 21 23  1  0
 23 24  1  1
 24 25  1  0
 25 26  1  0
 25 27  1  0
 23 28  1  0
 28 29  1  0
 29 30  2  0
 31 29  1  6
 31 32  1  0
 32 33  1  0
 33 34  1  0
 34 35  1  0
 35 36  1  0
 36 37  2  0
 36 38  1  0
 38 39  1  6
 39 40  1  0
 40 41  2  0
 40 42  1  0
 42 43  1  1
 43 44  1  0
 44 45  1  0
 44 46  1  0
 42 47  1  0
 47 48  1  0
 48 49  2  0
 48 50  1  0
 50 51  1  6
 50 52  1  0
 52 53  1  0
 53 54  1  0
 54 55  1  0
 55 56  1  0
 38 57  1  0
 57 58  1  1
 57 59  1  0
 13 60  1  0
 60 61  1  0
 60 62  1  0
  9 63  1  0
 63 64  1  6
 63 65  1  0
  5 66  1  0
 66 67  2  0
 66 68  1  0
 35 31  1  0
M  CHG  3  51   1  56   1  68  -1
M  END
>  <shape_align_shape_tanimoto>  (1) 
0.37645018291349081

>  <shape_align_color_tanimoto>  (1) 
0.023401061365944536

>  <metric>  (1) 
shape

>  <metric_score>  (1) 
0.376

>  <template_pid>  (1) 
2X4O

>  <template_shape_score>  (1) 
0.376

>  <template_color_score>  (1) 
0.023

>  <template_combo_score>  (1) 
0.200

$$$$
2X4O_color_pose
     RDKit          3D

 68 68  0  0  0  0  0  0  0  0999 V2000
   -6.8448    1.6655   14.4355 C   0  0  0  0  0  0  0  0  0  0  0  0
   -5.3333    1.8086   14.2282 C   0  0  0  0  0  0  0  0  0  0  0  0
   -5.0220    3.2868   14.3464 C   0  0  0  0  0  0  0  0  0  0  0  0
   -5.0089    1.2289   12.8847 C   0  0  0  0  0  0  0  0  0  0  0  0
   -3.5488    1.2833   12.5116 C   0  0  2  0  0  0  0  0  0  0  0  0
   -2.7156    0.5721   13.4550 N   0  0  0  0  0  0  0  0  0  0  0  0
   -1.8118   -0.4590   13.1264 C   0  0  0  0  0  0  0  0  0  0  0  0
   -1.7415   -0.7765   11.8852 O   0  0  0  0  0  0  0  0  0  0  0  0
   -0.9541   -1.1972   14.0559 C   0  0  1  0  0  0  0  0  0  0  0  0
   -0.1581   -2.2138   13.3596 N   0  0  0  0  0  0  0  0  0  0  0  0
   -0.2616   -3.5622   13.7125 C   0  0  0  0  0  0  0  0  0  0  0  0
   -1.0759   -3.8664   14.6568 O   0  0  0  0  0  0  0  0  0  0  0  0
    0.4758   -4.7028   13.1148 C   0  0  1  0  0  0  0  0  0  0  0  0
    0.0797   -5.8630   13.9718 N   0  0  0  0  0  0  0  0  0  0  0  0
    0.9336   -6.3250   15.0105 C   0  0  0  0  0  0  0  0  0  0  0  0
    2.0323   -5.6807   15.1490 O   0  0  0  0  0  0  0  0  0  0  0  0
    0.6095   -7.4651   15.8896 C   0  0  2  0  0  0  0  0  0  0  0  0
    1.8190   -8.3871   15.9980 C   0  0  0  0  0  0  0  0  0  0  0  0
    1.4083   -9.7872   17.0703 S   0  0  0  0  0  0  0  0  0  0  0  0
   -0.6095   -8.1689   15.5443 N   0  0  0  0  0  0  0  0  0  0  0  0
   -0.6594   -8.8266   14.2976 C   0  0  0  0  0  0  0  0  0  0  0  0
    0.3515   -8.7870   13.5016 O   0  0  0  0  0  0  0  0  0  0  0  0
   -1.8221   -9.6146   13.7713 C   0  0  2  0  0  0  0  0  0  0  0  0
   -1.8777   -9.4111   12.3081 C   0  0  0  0  0  0  0  0  0  0  0  0
   -2.9188  -10.1142   11.5236 C   0  0  0  0  0  0  0  0  0  0  0  0
   -2.7688   -9.7465   10.0348 C   0  0  0  0  0  0  0  0  0  0  0  0
   -4.3406   -9.9028   11.8974 C   0  0  0  0  0  0  0  0  0  0  0  0
   -2.9989   -9.5652   14.5415 N   0  0  0  0  0  0  0  0  0  0  0  0
   -3.7329   -8.3935   14.9435 C   0  0  0  0  0  0  0  0  0  0  0  0
   -3.3060   -7.2518   14.5642 O   0  0  0  0  0  0  0  0  0  0  0  0
   -4.9243   -8.5980   15.7694 C   0  0  2  0  0  0  0  0  0  0  0  0
   -5.9849   -9.2121   14.8310 C   0  0  0  0  0  0  0  0  0  0  0  0
   -7.2943   -8.8946   15.5514 C   0  0  0  0  0  0  0  0  0  0  0  0
   -7.0196   -7.4421   15.9303 C   0  0  0  0  0  0  0  0  0  0  0  0
   -5.5704   -7.4598   16.3389 N   0  0  0  0  0  0  0  0  0  0  0  0
   -5.1306   -6.4138   17.1950 C   0  0  0  0  0  0  0  0  0  0  0  0
   -6.0851   -5.5851   17.5216 O   0  0  0  0  0  0  0  0  0  0  0  0
   -3.8282   -6.1313   17.7488 C   0  0  1  0  0  0  0  0  0  0  0  0
   -3.8465   -4.9956   18.6800 N   0  0  0  0  0  0  0  0  0  0  0  0
   -2.9242   -3.8960   18.5584 C   0  0  0  0  0  0  0  0  0  0  0  0
   -2.1226   -4.0338   17.5582 O   0  0  0  0  0  0  0  0  0  0  0  0
   -2.9159   -2.7737   19.4751 C   0  0  2  0  0  0  0  0  0  0  0  0
   -1.7574   -2.5153   20.3589 C   0  0  0  0  0  0  0  0  0  0  0  0
   -0.4207   -2.2333   19.7743 C   0  0  0  0  0  0  0  0  0  0  0  0
    0.5704   -1.9431   20.9459 C   0  0  0  0  0  0  0  0  0  0  0  0
    0.2291   -3.3020   18.9536 C   0  0  0  0  0  0  0  0  0  0  0  0
   -4.1465   -2.8790   20.3143 N   0  0  0  0  0  0  0  0  0  0  0  0
   -5.0495   -1.7855   20.3962 C   0  0  0  0  0  0  0  0  0  0  0  0
   -4.8336   -0.6865   19.7696 O   0  0  0  0  0  0  0  0  0  0  0  0
   -6.3054   -1.8105   21.2037 C   0  0  1  0  0  0  0  0  0  0  0  0
   -6.7309   -0.4475   21.4651 N   0  0  0  0  0  0  0  0  0  0  0  0
   -7.3341   -2.5210   20.3164 C   0  0  0  0  0  0  0  0  0  0  0  0
   -8.6654   -2.6359   20.9762 C   0  0  0  0  0  0  0  0  0  0  0  0
   -9.6383   -3.3266   20.0461 C   0  0  0  0  0  0  0  0  0  0  0  0
   -9.8612   -2.6028   18.7437 C   0  0  0  0  0  0  0  0  0  0  0  0
  -10.8378   -3.3301   17.9036 N   0  0  0  0  0  0  0  0  0  0  0  0
   -3.3628   -7.3102   18.6121 C   0  0  1  0  0  0  0  0  0  0  0  0
   -1.9811   -7.0687   19.1897 C   0  0  0  0  0  0  0  0  0  0  0  0
   -4.2532   -7.5442   19.6848 O   0  0  0  0  0  0  0  0  0  0  0  0
    0.1521   -4.9884   11.6945 C   0  0  0  0  0  0  0  0  0  0  0  0
    0.9957   -6.1828   11.2373 C   0  0  0  0  0  0  0  0  0  0  0  0
    0.5104   -3.8405   10.8053 C   0  0  0  0  0  0  0  0  0  0  0  0
   -0.0387   -0.2481   14.8101 C   0  0  1  0  0  0  0  0  0  0  0  0
    0.8894    0.5045   13.8859 C   0  0  0  0  0  0  0  0  0  0  0  0
   -0.8069    0.6848   15.4722 O   0  0  0  0  0  0  0  0  0  0  0  0
   -3.0785    2.6674   12.2269 C   0  0  0  0  0  0  0  0  0  0  0  0
   -2.2855    3.3047   12.9624 O   0  0  0  0  0  0  0  0  0  0  0  0
   -3.5839    3.2556   11.0471 O   0  0  0  0  0  0  0  0  0  0  0  0
  1  2  1  0
  2  3  1  0
  2  4  1  0
  5  4  1  1
  5  6  1  0
  6  7  1  0
  7  8  2  0
  7  9  1  0
  9 10  1  6
 10 11  1  0
 11 12  2  0
 11 13  1  0
 13 14  1  1
 14 15  1  0
 15 16  2  0
 15 17  1  0
 17 18  1  6
 18 19  1  0
 17 20  1  0
 20 21  1  0
 21 22  2  0
 21 23  1  0
 23 24  1  6
 24 25  1  0
 25 26  1  0
 25 27  1  0
 23 28  1  0
 28 29  1  0
 29 30  2  0
 31 29  1  6
 31 32  1  0
 32 33  1  0
 33 34  1  0
 34 35  1  0
 35 36  1  0
 36 37  2  0
 36 38  1  0
 38 39  1  1
 39 40  1  0
 40 41  2  0
 40 42  1  0
 42 43  1  1
 43 44  1  0
 44 45  1  0
 44 46  1  0
 42 47  1  0
 47 48  1  0
 48 49  2  0
 48 50  1  0
 50 51  1  6
 50 52  1  0
 52 53  1  0
 53 54  1  0
 54 55  1  0
 55 56  1  0
 38 57  1  0
 57 58  1  1
 57 59  1  0
 13 60  1  0
 60 61  1  0
 60 62  1  0
  9 63  1  0
 63 64  1  6
 63 65  1  0
  5 66  1  0
 66 67  2  0
 66 68  1  0
 35 31  1  0
M  CHG  3  51   1  56   1  68  -1
M  END
>  <shape_align_shape_tanimoto>  (2) 
0.23836221552571621

>  <shape_align_color_tanimoto>  (2) 
0.074355315696087901

>  <metric>  (2) 
color

>  <metric_score>  (2) 
0.074

>  <template_pid>  (2) 
2X4O

>  <template_shape_score>  (2) 
0.238

>  <template_color_score>  (2) 
0.074

>  <template_combo_score>  (2) 
0.156

$$$$
2X4O_combo_pose
     RDKit          3D

 68 68  0  0  0  0  0  0  0  0999 V2000
  -10.6401    1.5893   27.9703 C   0  0  0  0  0  0  0  0  0  0  0  0
   -9.1689    1.4410   27.5025 C   0  0  0  0  0  0  0  0  0  0  0  0
   -8.4726    0.6846   28.5650 C   0  0  0  0  0  0  0  0  0  0  0  0
   -9.1794    0.9178   26.1072 C   0  0  0  0  0  0  0  0  0  0  0  0
   -7.7940    0.7284   25.5546 C   0  0  2  0  0  0  0  0  0  0  0  0
   -7.7963    0.3278   24.1367 N   0  0  0  0  0  0  0  0  0  0  0  0
   -7.1909    1.2232   23.2491 C   0  0  0  0  0  0  0  0  0  0  0  0
   -6.7094    2.2967   23.7753 O   0  0  0  0  0  0  0  0  0  0  0  0
   -7.0291    1.1060   21.7974 C   0  0  1  0  0  0  0  0  0  0  0  0
   -7.5553   -0.1386   21.2775 N   0  0  0  0  0  0  0  0  0  0  0  0
   -6.6553   -1.1649   20.9740 C   0  0  0  0  0  0  0  0  0  0  0  0
   -5.4123   -0.9474   21.2153 O   0  0  0  0  0  0  0  0  0  0  0  0
   -6.9542   -2.4855   20.3934 C   0  0  1  0  0  0  0  0  0  0  0  0
   -5.7558   -3.3224   20.3362 N   0  0  0  0  0  0  0  0  0  0  0  0
   -4.6959   -2.8979   19.4991 C   0  0  0  0  0  0  0  0  0  0  0  0
   -4.7701   -1.8069   18.8366 O   0  0  0  0  0  0  0  0  0  0  0  0
   -3.4366   -3.6825   19.3372 C   0  0  2  0  0  0  0  0  0  0  0  0
   -2.7226   -3.2782   18.1082 C   0  0  0  0  0  0  0  0  0  0  0  0
   -1.1672   -4.2316   17.8865 S   0  0  0  0  0  0  0  0  0  0  0  0
   -3.5281   -5.0506   19.6721 N   0  0  0  0  0  0  0  0  0  0  0  0
   -3.0602   -5.7199   20.8145 C   0  0  0  0  0  0  0  0  0  0  0  0
   -2.4825   -5.0000   21.6958 O   0  0  0  0  0  0  0  0  0  0  0  0
   -3.2355   -7.1766   20.9710 C   0  0  2  0  0  0  0  0  0  0  0  0
   -2.0842   -7.9308   21.5264 C   0  0  0  0  0  0  0  0  0  0  0  0
   -1.6815   -7.4888   22.9083 C   0  0  0  0  0  0  0  0  0  0  0  0
   -2.7688   -7.6170   23.9249 C   0  0  0  0  0  0  0  0  0  0  0  0
   -0.5741   -8.4479   23.3693 C   0  0  0  0  0  0  0  0  0  0  0  0
   -3.6662   -7.7355   19.6941 N   0  0  0  0  0  0  0  0  0  0  0  0
   -4.8896   -8.4091   19.5343 C   0  0  0  0  0  0  0  0  0  0  0  0
   -5.6170   -8.4933   20.5971 O   0  0  0  0  0  0  0  0  0  0  0  0
   -5.4510   -9.0309   18.3399 C   0  0  2  0  0  0  0  0  0  0  0  0
   -5.7160  -10.4993   18.7684 C   0  0  0  0  0  0  0  0  0  0  0  0
   -5.7436  -11.1745   17.4241 C   0  0  0  0  0  0  0  0  0  0  0  0
   -4.5453  -10.5350   16.7816 C   0  0  0  0  0  0  0  0  0  0  0  0
   -4.7590   -9.0683   17.1232 N   0  0  0  0  0  0  0  0  0  0  0  0
   -4.2337   -8.1738   16.1737 C   0  0  0  0  0  0  0  0  0  0  0  0
   -3.6929   -8.8148   15.1512 O   0  0  0  0  0  0  0  0  0  0  0  0
   -4.1355   -6.7303   16.0490 C   0  0  1  0  0  0  0  0  0  0  0  0
   -3.2852   -6.4298   14.8427 N   0  0  0  0  0  0  0  0  0  0  0  0
   -1.9106   -6.7625   14.8077 C   0  0  0  0  0  0  0  0  0  0  0  0
   -1.3578   -7.3606   15.8002 O   0  0  0  0  0  0  0  0  0  0  0  0
   -1.1582   -6.3916   13.5872 C   0  0  2  0  0  0  0  0  0  0  0  0
    0.2904   -6.1202   13.7690 C   0  0  0  0  0  0  0  0  0  0  0  0
    0.6939   -5.0319   14.6883 C   0  0  0  0  0  0  0  0  0  0  0  0
    0.1598   -3.6615   14.3090 C   0  0  0  0  0  0  0  0  0  0  0  0
    2.2231   -4.8869   14.4913 C   0  0  0  0  0  0  0  0  0  0  0  0
   -1.8366   -5.4004   12.7972 N   0  0  0  0  0  0  0  0  0  0  0  0
   -2.1525   -5.4676   11.4191 C   0  0  0  0  0  0  0  0  0  0  0  0
   -1.8823   -6.4459   10.6750 O   0  0  0  0  0  0  0  0  0  0  0  0
   -2.8554   -4.2418   10.8739 C   0  0  1  0  0  0  0  0  0  0  0  0
   -2.9448   -4.4822    9.4301 N   0  0  0  0  0  0  0  0  0  0  0  0
   -4.2256   -4.1051   11.4270 C   0  0  0  0  0  0  0  0  0  0  0  0
   -5.0110   -2.9011   11.0378 C   0  0  0  0  0  0  0  0  0  0  0  0
   -5.2940   -2.6619    9.6032 C   0  0  0  0  0  0  0  0  0  0  0  0
   -6.1409   -1.3786    9.4680 C   0  0  0  0  0  0  0  0  0  0  0  0
   -6.4275   -1.0891    8.1017 N   0  0  0  0  0  0  0  0  0  0  0  0
   -5.3932   -5.9865   15.9135 C   0  0  1  0  0  0  0  0  0  0  0  0
   -6.4482   -6.1499   16.9608 C   0  0  0  0  0  0  0  0  0  0  0  0
   -5.1634   -4.5892   15.8235 O   0  0  0  0  0  0  0  0  0  0  0  0
   -8.1084   -3.2060   20.9041 C   0  0  0  0  0  0  0  0  0  0  0  0
   -8.1719   -4.5843   20.1804 C   0  0  0  0  0  0  0  0  0  0  0  0
   -9.4102   -2.5273   20.4474 C   0  0  0  0  0  0  0  0  0  0  0  0
   -7.6779    2.2871   21.0779 C   0  0  1  0  0  0  0  0  0  0  0  0
   -9.1807    2.2876   21.3025 C   0  0  0  0  0  0  0  0  0  0  0  0
   -7.1282    3.4397   21.6114 O   0  0  0  0  0  0  0  0  0  0  0  0
   -7.0832   -0.4376   26.2355 C   0  0  0  0  0  0  0  0  0  0  0  0
   -5.8322   -0.4315   26.1904 O   0  0  0  0  0  0  0  0  0  0  0  0
   -7.8263   -1.4433   26.8583 O   0  0  0  0  0  0  0  0  0  0  0  0
  1  2  1  0
  2  3  1  0
  2  4  1  0
  5  4  1  1
  5  6  1  0
  6  7  1  0
  7  8  2  0
  7  9  1  0
  9 10  1  6
 10 11  1  0
 11 12  2  0
 11 13  1  0
 13 14  1  1
 14 15  1  0
 15 16  2  0
 15 17  1  0
 17 18  1  6
 18 19  1  0
 17 20  1  0
 20 21  1  0
 21 22  2  0
 21 23  1  0
 23 24  1  6
 24 25  1  0
 25 26  1  0
 25 27  1  0
 23 28  1  0
 28 29  1  0
 29 30  2  0
 31 29  1  1
 31 32  1  0
 32 33  1  0
 33 34  1  0
 34 35  1  0
 35 36  1  0
 36 37  2  0
 36 38  1  0
 38 39  1  6
 39 40  1  0
 40 41  2  0
 40 42  1  0
 42 43  1  1
 43 44  1  0
 44 45  1  0
 44 46  1  0
 42 47  1  0
 47 48  1  0
 48 49  2  0
 48 50  1  0
 50 51  1  6
 50 52  1  0
 52 53  1  0
 53 54  1  0
 54 55  1  0
 55 56  1  0
 38 57  1  0
 57 58  1  1
 57 59  1  0
 13 60  1  0
 60 61  1  0
 60 62  1  0
  9 63  1  0
 63 64  1  1
 63 65  1  0
  5 66  1  0
 66 67  2  0
 66 68  1  0
 35 31  1  0
M  CHG  3  51   1  56   1  68  -1
M  END
>  <shape_align_shape_tanimoto>  (3) 
0.37540192689465096

>  <shape_align_color_tanimoto>  (3) 
0.050016444957325414

>  <metric>  (3) 
combo

>  <metric_score>  (3) 
0.213

>  <template_pid>  (3) 
2X4O

>  <template_shape_score>  (3) 
0.375

>  <template_color_score>  (3) 
0.050

>  <template_combo_score>  (3) 
0.213

$$$$
