3JUQ_shape_pose
     RDKit          3D

 17 18  0  0  0  0  0  0  0  0999 V2000
   16.1509    0.7726  -30.8325 O   0  0  0  0  0  0  0  0  0  0  0  0
   15.8577   -0.4947  -30.8583 C   0  0  0  0  0  0  0  0  0  0  0  0
   14.7532   -0.7299  -31.6025 O   0  0  0  0  0  0  0  0  0  0  0  0
   16.7333   -1.3436  -30.1141 C   0  0  0  0  0  0  0  0  0  0  0  0
   17.7159   -0.6925  -29.3436 C   0  0  0  0  0  0  0  0  0  0  0  0
   18.5764   -1.3307  -28.4980 C   0  0  0  0  0  0  0  0  0  0  0  0
   19.8804   -0.3816  -27.4887 Br  0  0  0  0  0  0  0  0  0  0  0  0
   18.4911   -2.6821  -28.3817 C   0  0  0  0  0  0  0  0  0  0  0  0
   17.5491   -3.3397  -29.1184 C   0  0  0  0  0  0  0  0  0  0  0  0
   16.6436   -2.7077  -30.0056 C   0  0  0  0  0  0  0  0  0  0  0  0
   15.8473   -3.5744  -30.7518 N   0  0  0  0  0  0  0  0  0  0  0  0
   15.0203   -3.5111  -31.8949 C   0  0  2  0  0  0  0  0  0  0  0  0
   14.4612   -4.9708  -32.1988 C   0  0  0  0  0  0  0  0  0  0  0  0
   13.5023   -4.7396  -33.3270 C   0  0  0  0  0  0  0  0  0  0  0  0
   14.2033   -4.2478  -34.5478 C   0  0  0  0  0  0  0  0  0  0  0  0
   14.8407   -2.9706  -34.2342 N   0  0  0  0  0  0  0  0  0  0  0  0
   15.7762   -3.2000  -33.1588 C   0  0  0  0  0  0  0  0  0  0  0  0
  1  2  2  0
  2  3  1  0
  2  4  1  0
  4  5  2  0
  5  6  1  0
  6  7  1  0
  6  8  2  0
  8  9  1  0
  9 10  2  0
 10 11  1  0
 12 11  1  1
 12 13  1  0
 13 14  1  0
 14 15  1  0
 15 16  1  0
 16 17  1  0
 10  4  1  0
 17 12  1  0
M  CHG  2   3  -1  16   1
M  END
>  <shape_align_shape_tanimoto>  (1) 
0.35754694722991026

>  <shape_align_color_tanimoto>  (1) 
0.033886932976766024

>  <metric>  (1) 
shape

>  <metric_score>  (1) 
0.358

>  <template_pid>  (1) 
3JUQ

>  <template_shape_score>  (1) 
0.358

>  <template_color_score>  (1) 
0.034

>  <template_combo_score>  (1) 
0.196

$$$$
3JUQ_color_pose
     RDKit          3D

 17 18  0  0  0  0  0  0  0  0999 V2000
   18.9326   -4.9643  -27.6497 O   0  0  0  0  0  0  0  0  0  0  0  0
   18.0652   -4.9827  -28.5487 C   0  0  0  0  0  0  0  0  0  0  0  0
   17.5619   -6.2787  -28.8108 O   0  0  0  0  0  0  0  0  0  0  0  0
   17.5523   -3.8660  -29.3078 C   0  0  0  0  0  0  0  0  0  0  0  0
   16.5668   -4.1725  -30.2619 C   0  0  0  0  0  0  0  0  0  0  0  0
   15.9828   -3.2196  -31.0537 C   0  0  0  0  0  0  0  0  0  0  0  0
   14.6550   -3.6564  -32.3343 Br  0  0  0  0  0  0  0  0  0  0  0  0
   16.3883   -1.9233  -30.8945 C   0  0  0  0  0  0  0  0  0  0  0  0
   17.3639   -1.6010  -29.9540 C   0  0  0  0  0  0  0  0  0  0  0  0
   17.9679   -2.5475  -29.1429 C   0  0  0  0  0  0  0  0  0  0  0  0
   18.9509   -2.1749  -28.2218 N   0  0  0  0  0  0  0  0  0  0  0  0
   19.4543   -0.8781  -27.9267 C   0  0  2  0  0  0  0  0  0  0  0  0
   18.5219    0.1307  -27.3715 C   0  0  0  0  0  0  0  0  0  0  0  0
   19.4178    1.1481  -26.6270 C   0  0  0  0  0  0  0  0  0  0  0  0
   20.4733    1.6909  -27.5616 C   0  0  0  0  0  0  0  0  0  0  0  0
   21.1719    0.7065  -28.3238 N   0  0  0  0  0  0  0  0  0  0  0  0
   20.2933   -0.2432  -29.0076 C   0  0  0  0  0  0  0  0  0  0  0  0
  1  2  2  0
  2  3  1  0
  2  4  1  0
  4  5  2  0
  5  6  1  0
  6  7  1  0
  6  8  2  0
  8  9  1  0
  9 10  2  0
 10 11  1  0
 12 11  1  6
 12 13  1  0
 13 14  1  0
 14 15  1  0
 15 16  1  0
 16 17  1  0
 10  4  1  0
 17 12  1  0
M  CHG  2   3  -1  16   1
M  END
>  <shape_align_shape_tanimoto>  (2) 
0.33437489536317816

>  <shape_align_color_tanimoto>  (2) 
0.059926629630974088

>  <metric>  (2) 
color

>  <metric_score>  (2) 
0.060

>  <template_pid>  (2) 
3JUQ

>  <template_shape_score>  (2) 
0.334

>  <template_color_score>  (2) 
0.060

>  <template_combo_score>  (2) 
0.197

$$$$
3JUQ_combo_pose
     RDKit          3D

 17 18  0  0  0  0  0  0  0  0999 V2000
   16.8292    1.4646  -30.2702 O   0  0  0  0  0  0  0  0  0  0  0  0
   16.2840    0.4742  -30.8048 C   0  0  0  0  0  0  0  0  0  0  0  0
   15.3623    0.7927  -31.8181 O   0  0  0  0  0  0  0  0  0  0  0  0
   16.5038   -0.9140  -30.4909 C   0  0  0  0  0  0  0  0  0  0  0  0
   15.7979   -1.8631  -31.2161 C   0  0  0  0  0  0  0  0  0  0  0  0
   15.9191   -3.2184  -31.0236 C   0  0  0  0  0  0  0  0  0  0  0  0
   14.9216   -4.4756  -32.0528 Br  0  0  0  0  0  0  0  0  0  0  0  0
   16.7854   -3.6782  -30.0602 C   0  0  0  0  0  0  0  0  0  0  0  0
   17.4956   -2.7375  -29.3292 C   0  0  0  0  0  0  0  0  0  0  0  0
   17.3716   -1.3783  -29.5258 C   0  0  0  0  0  0  0  0  0  0  0  0
   18.1088   -0.5070  -28.7122 N   0  0  0  0  0  0  0  0  0  0  0  0
   19.0825   -0.9979  -27.7658 C   0  0  2  0  0  0  0  0  0  0  0  0
   19.5511    0.0917  -26.7887 C   0  0  0  0  0  0  0  0  0  0  0  0
   19.9931    1.2539  -27.5955 C   0  0  0  0  0  0  0  0  0  0  0  0
   20.7124    0.9309  -28.8540 C   0  0  0  0  0  0  0  0  0  0  0  0
   21.1389   -0.4090  -29.0290 N   0  0  0  0  0  0  0  0  0  0  0  0
   20.3803   -1.4373  -28.3897 C   0  0  0  0  0  0  0  0  0  0  0  0
  1  2  2  0
  2  3  1  0
  2  4  1  0
  4  5  2  0
  5  6  1  0
  6  7  1  0
  6  8  2  0
  8  9  1  0
  9 10  2  0
 10 11  1  0
 12 11  1  6
 12 13  1  0
 13 14  1  0
 14 15  1  0
 15 16  1  0
 16 17  1  0
 10  4  1  0
 17 12  1  0
M  CHG  2   3  -1  16   1
M  END
>  <shape_align_shape_tanimoto>  (3) 
0.3510049550686572

>  <shape_align_color_tanimoto>  (3) 
0.046197689790736463

>  <metric>  (3) 
combo

>  <metric_score>  (3) 
0.199

>  <template_pid>  (3) 
3JUQ

>  <template_shape_score>  (3) 
0.351

>  <template_color_score>  (3) 
0.046

>  <template_combo_score>  (3) 
0.199

$$$$
