4BGK_shape_pose
     RDKit          3D

 10  9  0  0  0  0  0  0  0  0999 V2000
   40.3053   -1.5713   12.8962 C   0  0  0  0  0  0  0  0  0  0  0  0
   40.1748   -1.7096   11.4698 N   0  0  0  0  0  0  0  0  0  0  0  0
   41.3080   -1.0357   10.8740 C   0  0  0  0  0  0  0  0  0  0  0  0
   40.2733   -3.1245   11.1578 C   0  0  0  0  0  0  0  0  0  0  0  0
   38.9706   -1.1159   10.9514 C   0  0  0  0  0  0  0  0  0  0  0  0
   37.8729   -1.3448   11.9291 C   0  0  0  0  0  0  0  0  0  0  0  0
   36.5249   -0.7595   11.4980 C   0  0  0  0  0  0  0  0  0  0  0  0
   35.4083   -1.1925   12.8702 P   0  0  2  0  0  5  0  0  0  0  0  0
   35.7372   -2.6349   13.2549 O   0  0  0  0  0  0  0  0  0  0  0  0
   33.7841   -1.0724   12.4394 O   0  0  0  0  0  0  0  0  0  0  0  0
  1  2  1  0
  2  3  1  0
  2  4  1  0
  2  5  1  0
  5  6  1  0
  6  7  1  0
  7  8  1  0
  8  9  2  0
  8 10  1  6
M  CHG  1   2   1
M  END
>  <shape_align_shape_tanimoto>  (1) 
0.47789102636438785

>  <shape_align_color_tanimoto>  (1) 
0.017123002702168197

>  <metric>  (1) 
shape

>  <metric_score>  (1) 
0.478

>  <template_pid>  (1) 
4BGK

>  <template_shape_score>  (1) 
0.478

>  <template_color_score>  (1) 
0.017

>  <template_combo_score>  (1) 
0.248

$$$$
4BGK_color_pose
     RDKit          3D

 10  9  0  0  0  0  0  0  0  0999 V2000
   35.7935   -0.7826   11.7853 C   0  0  0  0  0  0  0  0  0  0  0  0
   37.1391   -1.3066   12.0938 N   0  0  0  0  0  0  0  0  0  0  0  0
   36.9985   -2.6946   12.3008 C   0  0  0  0  0  0  0  0  0  0  0  0
   37.4738   -0.6729   13.3811 C   0  0  0  0  0  0  0  0  0  0  0  0
   38.0927   -0.8622   11.1378 C   0  0  0  0  0  0  0  0  0  0  0  0
   39.2368   -1.7201   10.8078 C   0  0  0  0  0  0  0  0  0  0  0  0
   40.1581   -2.0725   11.9326 C   0  0  0  0  0  0  0  0  0  0  0  0
   40.9639   -0.7392   12.7638 P   0  0  2  0  0  5  0  0  0  0  0  0
   42.3469   -0.5633   12.1638 O   0  0  0  0  0  0  0  0  0  0  0  0
   41.2506   -1.0387   14.4099 O   0  0  0  0  0  0  0  0  0  0  0  0
  1  2  1  0
  2  3  1  0
  2  4  1  0
  2  5  1  0
  5  6  1  0
  6  7  1  0
  7  8  1  0
  8  9  2  0
  8 10  1  1
M  CHG  1   2   1
M  END
>  <shape_align_shape_tanimoto>  (2) 
0.41047610579918686

>  <shape_align_color_tanimoto>  (2) 
0.097638862807019153

>  <metric>  (2) 
color

>  <metric_score>  (2) 
0.098

>  <template_pid>  (2) 
4BGK

>  <template_shape_score>  (2) 
0.410

>  <template_color_score>  (2) 
0.098

>  <template_combo_score>  (2) 
0.254

$$$$
4BGK_combo_pose
     RDKit          3D

 10  9  0  0  0  0  0  0  0  0999 V2000
   35.7935   -0.7826   11.7853 C   0  0  0  0  0  0  0  0  0  0  0  0
   37.1391   -1.3066   12.0938 N   0  0  0  0  0  0  0  0  0  0  0  0
   36.9985   -2.6946   12.3008 C   0  0  0  0  0  0  0  0  0  0  0  0
   37.4738   -0.6729   13.3811 C   0  0  0  0  0  0  0  0  0  0  0  0
   38.0927   -0.8622   11.1378 C   0  0  0  0  0  0  0  0  0  0  0  0
   39.2368   -1.7201   10.8078 C   0  0  0  0  0  0  0  0  0  0  0  0
   40.1581   -2.0725   11.9326 C   0  0  0  0  0  0  0  0  0  0  0  0
   40.9639   -0.7392   12.7638 P   0  0  2  0  0  5  0  0  0  0  0  0
   42.3469   -0.5633   12.1638 O   0  0  0  0  0  0  0  0  0  0  0  0
   41.2506   -1.0387   14.4099 O   0  0  0  0  0  0  0  0  0  0  0  0
  1  2  1  0
  2  3  1  0
  2  4  1  0
  2  5  1  0
  5  6  1  0
  6  7  1  0
  7  8  1  0
  8  9  2  0
  8 10  1  1
M  CHG  1   2   1
M  END
>  <shape_align_shape_tanimoto>  (3) 
0.41047610579918686

>  <shape_align_color_tanimoto>  (3) 
0.097638862807019153

>  <metric>  (3) 
combo

>  <metric_score>  (3) 
0.254

>  <template_pid>  (3) 
4BGK

>  <template_shape_score>  (3) 
0.410

>  <template_color_score>  (3) 
0.098

>  <template_combo_score>  (3) 
0.254

$$$$
