3ER5_shape_pose
     RDKit          3D

 91 96  0  0  0  0  0  0  0  0999 V2000
  -17.4600   66.3837   45.5126 C   0  0  0  0  0  0  0  0  0  0  0  0
  -15.9462   66.4928   45.6720 C   0  0  0  0  0  0  0  0  0  0  0  0
  -15.1516   66.7039   44.4037 C   0  0  2  0  0  0  0  0  0  0  0  0
  -13.6220   66.7857   44.6521 C   0  0  0  0  0  0  0  0  0  0  0  0
  -15.6293   67.8216   43.5051 C   0  0  2  0  0  0  0  0  0  0  0  0
  -14.7394   67.8925   42.3145 N   0  0  0  0  0  0  0  0  0  0  0  0
  -15.2792   67.9872   41.0140 C   0  0  0  0  0  0  0  0  0  0  0  0
  -16.5848   68.0523   40.9324 O   0  0  0  0  0  0  0  0  0  0  0  0
  -14.5511   68.0197   39.7094 C   0  0  1  0  0  0  0  0  0  0  0  0
  -15.3877   68.2932   38.5660 N   0  0  0  0  0  0  0  0  0  0  0  0
  -16.5276   67.5554   38.1287 C   0  0  0  0  0  0  0  0  0  0  0  0
  -16.9274   66.5375   38.8480 O   0  0  0  0  0  0  0  0  0  0  0  0
  -17.3065   67.8405   36.9119 C   0  0  0  0  0  0  0  0  0  0  0  0
  -18.8098   67.6667   36.9244 C   0  0  2  0  0  0  0  0  0  0  0  0
  -19.2955   66.4347   37.3228 O   0  0  0  0  0  0  0  0  0  0  0  0
  -19.2379   67.9145   35.4030 C   0  0  2  0  0  0  0  0  0  0  0  0
  -20.4174   68.6986   35.1547 C   0  0  0  0  0  0  0  0  0  0  0  0
  -21.8181   68.4744   35.5564 C   0  0  0  0  0  0  0  0  0  0  0  0
  -22.4311   67.2041   34.9882 C   0  0  0  0  0  0  0  0  0  0  0  0
  -22.6500   69.6579   34.9467 C   0  0  0  0  0  0  0  0  0  0  0  0
  -18.7169   66.8210   34.5864 N   0  0  0  0  0  0  0  0  0  0  0  0
  -19.1923   65.4575   34.6657 C   0  0  0  0  0  0  0  0  0  0  0  0
  -20.1619   65.0925   35.4296 O   0  0  0  0  0  0  0  0  0  0  0  0
  -18.5952   64.2911   33.8772 C   0  0  2  0  0  0  0  0  0  0  0  0
  -18.6975   64.3011   32.4135 C   0  0  0  0  0  0  0  0  0  0  0  0
  -18.1094   65.4057   31.6230 C   0  0  0  0  0  0  0  0  0  0  0  0
  -16.7959   65.4671   31.1429 C   0  0  0  0  0  0  0  0  0  0  0  0
  -16.6810   66.6735   30.4768 N   0  0  0  0  0  0  0  0  0  0  0  0
  -17.8930   67.3245   30.5493 C   0  0  0  0  0  0  0  0  0  0  0  0
  -18.7902   66.5608   31.2534 N   0  0  0  0  0  0  0  0  0  0  0  0
  -19.4186   63.1132   34.3731 N   0  0  0  0  0  0  0  0  0  0  0  0
  -19.3098   62.7949   35.7771 C   0  0  0  0  0  0  0  0  0  0  0  0
  -18.5505   63.4613   36.5949 O   0  0  0  0  0  0  0  0  0  0  0  0
  -20.0862   61.6608   36.4049 C   0  0  2  0  0  0  0  0  0  0  0  0
  -21.4226   61.4764   35.7059 C   0  0  0  0  0  0  0  0  0  0  0  0
  -22.2311   60.3352   36.3307 C   0  0  0  0  0  0  0  0  0  0  0  0
  -21.9885   59.0424   35.8329 C   0  0  0  0  0  0  0  0  0  0  0  0
  -22.6874   57.9244   36.3295 C   0  0  0  0  0  0  0  0  0  0  0  0
  -23.6481   58.1400   37.3514 C   0  0  0  0  0  0  0  0  0  0  0  0
  -23.8649   59.4434   37.8234 C   0  0  0  0  0  0  0  0  0  0  0  0
  -23.1756   60.5510   37.3342 C   0  0  0  0  0  0  0  0  0  0  0  0
  -20.2944   61.8333   37.8469 N   0  0  0  0  0  0  0  0  0  0  0  0
  -19.7299   61.0908   38.8954 C   0  0  0  0  0  0  0  0  0  0  0  0
  -18.9217   60.1173   38.5637 O   0  0  0  0  0  0  0  0  0  0  0  0
  -19.9299   61.2590   40.3815 C   0  0  2  0  0  0  0  0  0  0  0  0
  -20.7920   60.0947   40.9103 C   0  0  0  0  0  0  0  0  0  0  0  0
  -21.4289   60.6689   42.1652 C   0  0  0  0  0  0  0  0  0  0  0  0
  -21.6654   62.1720   41.8332 C   0  0  0  0  0  0  0  0  0  0  0  0
  -20.5880   62.4523   40.8346 N   0  0  0  0  0  0  0  0  0  0  0  0
  -20.2969   63.7940   40.4060 C   0  0  0  0  0  0  0  0  0  0  0  0
  -19.2628   63.9237   39.6050 O   0  0  0  0  0  0  0  0  0  0  0  0
  -20.9838   65.0666   40.7225 C   0  0  2  0  0  0  0  0  0  0  0  0
  -19.9358   66.1237   41.2290 C   0  0  0  0  0  0  0  0  0  0  0  0
  -20.5540   67.4472   41.5115 C   0  0  0  0  0  0  0  0  0  0  0  0
  -21.8755   67.8488   41.2748 C   0  0  0  0  0  0  0  0  0  0  0  0
  -22.0561   69.1582   41.6228 N   0  0  0  0  0  0  0  0  0  0  0  0
  -20.8550   69.5964   42.0826 C   0  0  0  0  0  0  0  0  0  0  0  0
  -19.9395   68.5755   42.0205 N   0  0  0  0  0  0  0  0  0  0  0  0
  -22.1279   65.0427   41.6241 N   0  0  0  0  0  0  0  0  0  0  0  0
  -22.1719   65.4311   42.9956 C   0  0  0  0  0  0  0  0  0  0  0  0
  -21.1214   65.8503   43.6615 O   0  0  0  0  0  0  0  0  0  0  0  0
  -23.4326   65.4079   43.8494 C   0  0  2  0  0  0  0  0  0  0  0  0
  -23.3643   64.2999   44.9079 C   0  0  0  0  0  0  0  0  0  0  0  0
  -24.6388   63.4504   44.7280 C   0  0  0  0  0  0  0  0  0  0  0  0
  -25.1400   63.8176   43.3061 C   0  0  0  0  0  0  0  0  0  0  0  0
  -24.6622   65.1744   43.1489 N   0  0  0  0  0  0  0  0  0  0  0  0
  -13.1603   68.5163   39.7474 C   0  0  0  0  0  0  0  0  0  0  0  0
  -12.2344   67.6249   40.5569 C   0  0  0  0  0  0  0  0  0  0  0  0
  -12.5333   68.7556   38.3549 C   0  0  0  0  0  0  0  0  0  0  0  0
  -15.8163   69.1561   44.1747 C   0  0  0  0  0  0  0  0  0  0  0  0
  -16.5923   69.2157   45.2220 O   0  0  0  0  0  0  0  0  0  0  0  0
  -15.1652   70.3770   43.6909 N   0  0  0  0  0  0  0  0  0  0  0  0
  -15.4328   71.6679   44.4317 C   0  0  1  0  0  0  0  0  0  0  0  0
  -14.0935   72.1948   44.9300 C   0  0  0  0  0  0  0  0  0  0  0  0
  -14.1801   73.4801   45.6749 C   0  0  0  0  0  0  0  0  0  0  0  0
  -14.0499   74.7996   45.1382 C   0  0  0  0  0  0  0  0  0  0  0  0
  -14.1786   75.6610   46.2103 N   0  0  0  0  0  0  0  0  0  0  0  0
  -14.3755   74.9150   47.3252 C   0  0  0  0  0  0  0  0  0  0  0  0
  -14.3818   73.5748   47.0335 N   0  0  0  0  0  0  0  0  0  0  0  0
  -16.2144   72.6025   43.5819 C   0  0  0  0  0  0  0  0  0  0  0  0
  -16.3334   72.3493   42.3291 O   0  0  0  0  0  0  0  0  0  0  0  0
  -16.8440   73.7738   44.1187 N   0  0  0  0  0  0  0  0  0  0  0  0
  -17.6282   74.7315   43.3107 C   0  0  1  0  0  0  0  0  0  0  0  0
  -19.1181   74.3390   43.5871 C   0  0  0  0  0  0  0  0  0  0  0  0
  -20.0969   75.2363   42.8217 C   0  0  0  0  0  0  0  0  0  0  0  0
  -19.9097   75.1698   41.3023 C   0  0  0  0  0  0  0  0  0  0  0  0
  -20.9321   76.1135   40.6338 C   0  0  0  0  0  0  0  0  0  0  0  0
  -22.2981   75.7268   40.9647 N   0  0  0  0  0  0  0  0  0  0  0  0
  -17.4326   76.1429   43.7315 C   0  0  0  0  0  0  0  0  0  0  0  0
  -16.4243   76.7832   43.2924 O   0  0  0  0  0  0  0  0  0  0  0  0
  -18.2958   76.8448   44.6045 O   0  0  0  0  0  0  0  0  0  0  0  0
  1  2  1  0
  2  3  1  0
  3  4  1  1
  3  5  1  0
  5  6  1  6
  6  7  1  0
  7  8  2  0
  7  9  1  0
  9 10  1  6
 10 11  1  0
 11 12  2  0
 11 13  1  0
 13 14  1  0
 14 15  1  6
 14 16  1  0
 16 17  1  1
 17 18  1  0
 18 19  1  0
 18 20  1  0
 16 21  1  0
 21 22  1  0
 22 23  2  0
 22 24  1  0
 24 25  1  6
 25 26  1  0
 26 27  2  0
 27 28  1  0
 28 29  2  0
 29 30  1  0
 24 31  1  0
 31 32  1  0
 32 33  2  0
 32 34  1  0
 34 35  1  6
 35 36  1  0
 36 37  2  0
 37 38  1  0
 38 39  2  0
 39 40  1  0
 40 41  2  0
 34 42  1  0
 42 43  1  0
 43 44  2  0
 45 43  1  6
 45 46  1  0
 46 47  1  0
 47 48  1  0
 48 49  1  0
 49 50  1  0
 50 51  2  0
 50 52  1  0
 52 53  1  1
 53 54  1  0
 54 55  2  0
 55 56  1  0
 56 57  2  0
 57 58  1  0
 52 59  1  0
 59 60  1  0
 60 61  2  0
 62 60  1  6
 62 63  1  0
 63 64  1  0
 64 65  1  0
 65 66  1  0
  9 67  1  0
 67 68  1  0
 67 69  1  0
  5 70  1  0
 70 71  2  0
 70 72  1  0
 72 73  1  0
 73 74  1  6
 74 75  1  0
 75 76  2  0
 76 77  1  0
 77 78  2  0
 78 79  1  0
 73 80  1  0
 80 81  2  0
 80 82  1  0
 82 83  1  0
 83 84  1  1
 84 85  1  0
 85 86  1  0
 86 87  1  0
 87 88  1  0
 83 89  1  0
 89 90  2  0
 89 91  1  0
 30 26  1  0
 41 36  1  0
 49 45  1  0
 58 54  1  0
 66 62  1  0
 79 75  1  0
M  CHG  3  66   1  88   1  91  -1
M  END
>  <shape_align_shape_tanimoto>  (1) 
0.35955969356944001

>  <shape_align_color_tanimoto>  (1) 
0.009596711538158333

>  <metric>  (1) 
shape

>  <metric_score>  (1) 
0.360

>  <template_pid>  (1) 
3ER5

>  <template_shape_score>  (1) 
0.360

>  <template_color_score>  (1) 
0.010

>  <template_combo_score>  (1) 
0.185

$$$$
3ER5_color_pose
     RDKit          3D

 91 96  0  0  0  0  0  0  0  0999 V2000
  -15.4582   63.2769   37.6768 C   0  0  0  0  0  0  0  0  0  0  0  0
  -15.2438   63.3122   39.1577 C   0  0  0  0  0  0  0  0  0  0  0  0
  -15.7634   64.6728   39.7120 C   0  0  2  0  0  0  0  0  0  0  0  0
  -14.9288   65.6810   38.9764 C   0  0  0  0  0  0  0  0  0  0  0  0
  -15.6923   64.6856   41.1737 C   0  0  2  0  0  0  0  0  0  0  0  0
  -16.5086   63.5913   41.7783 N   0  0  0  0  0  0  0  0  0  0  0  0
  -17.8975   63.8024   41.6550 C   0  0  0  0  0  0  0  0  0  0  0  0
  -18.2334   64.8783   41.0481 O   0  0  0  0  0  0  0  0  0  0  0  0
  -18.9927   62.9680   42.1275 C   0  0  1  0  0  0  0  0  0  0  0  0
  -20.2467   63.6959   41.9295 N   0  0  0  0  0  0  0  0  0  0  0  0
  -21.0430   63.6666   40.7746 C   0  0  0  0  0  0  0  0  0  0  0  0
  -20.7429   63.0141   39.7684 O   0  0  0  0  0  0  0  0  0  0  0  0
  -22.2881   64.4461   40.7628 C   0  0  0  0  0  0  0  0  0  0  0  0
  -23.1271   64.3900   39.5420 C   0  0  2  0  0  0  0  0  0  0  0  0
  -23.5813   63.1517   39.1530 O   0  0  0  0  0  0  0  0  0  0  0  0
  -22.7555   65.2475   38.3918 C   0  0  2  0  0  0  0  0  0  0  0  0
  -23.8926   65.5069   37.4804 C   0  0  0  0  0  0  0  0  0  0  0  0
  -25.1261   66.1748   37.8437 C   0  0  0  0  0  0  0  0  0  0  0  0
  -26.0578   65.6673   38.8618 C   0  0  0  0  0  0  0  0  0  0  0  0
  -24.8916   67.6880   38.1425 C   0  0  0  0  0  0  0  0  0  0  0  0
  -21.7248   64.6577   37.5220 N   0  0  0  0  0  0  0  0  0  0  0  0
  -20.4632   65.2392   37.2849 C   0  0  0  0  0  0  0  0  0  0  0  0
  -20.2695   66.3459   37.9343 O   0  0  0  0  0  0  0  0  0  0  0  0
  -19.3937   64.8063   36.4402 C   0  0  2  0  0  0  0  0  0  0  0  0
  -18.8648   63.4543   36.4578 C   0  0  0  0  0  0  0  0  0  0  0  0
  -19.8005   62.4043   36.0476 C   0  0  0  0  0  0  0  0  0  0  0  0
  -20.5992   61.5113   36.6852 C   0  0  0  0  0  0  0  0  0  0  0  0
  -21.2116   60.6901   35.7820 N   0  0  0  0  0  0  0  0  0  0  0  0
  -20.8022   61.0621   34.5744 C   0  0  0  0  0  0  0  0  0  0  0  0
  -19.9550   62.0879   34.7100 N   0  0  0  0  0  0  0  0  0  0  0  0
  -18.3222   65.8326   36.3541 N   0  0  0  0  0  0  0  0  0  0  0  0
  -18.1229   66.5764   35.1841 C   0  0  0  0  0  0  0  0  0  0  0  0
  -18.9087   66.3437   34.2008 O   0  0  0  0  0  0  0  0  0  0  0  0
  -17.1072   67.6140   34.9184 C   0  0  2  0  0  0  0  0  0  0  0  0
  -16.4142   67.3819   33.5929 C   0  0  0  0  0  0  0  0  0  0  0  0
  -15.7340   66.0994   33.4378 C   0  0  0  0  0  0  0  0  0  0  0  0
  -14.4262   65.8582   33.8610 C   0  0  0  0  0  0  0  0  0  0  0  0
  -13.8088   64.6423   33.6828 C   0  0  0  0  0  0  0  0  0  0  0  0
  -14.4460   63.5946   33.0764 C   0  0  0  0  0  0  0  0  0  0  0  0
  -15.7474   63.7922   32.6391 C   0  0  0  0  0  0  0  0  0  0  0  0
  -16.3566   65.0063   32.8204 C   0  0  0  0  0  0  0  0  0  0  0  0
  -16.2835   67.9813   36.0008 N   0  0  0  0  0  0  0  0  0  0  0  0
  -16.3073   69.3041   36.5055 C   0  0  0  0  0  0  0  0  0  0  0  0
  -17.1517   70.0795   35.8764 O   0  0  0  0  0  0  0  0  0  0  0  0
  -15.5897   69.9414   37.5682 C   0  0  2  0  0  0  0  0  0  0  0  0
  -15.7508   71.4720   37.5471 C   0  0  0  0  0  0  0  0  0  0  0  0
  -14.9590   71.8320   38.8100 C   0  0  0  0  0  0  0  0  0  0  0  0
  -14.0129   70.6805   39.0315 C   0  0  0  0  0  0  0  0  0  0  0  0
  -14.2169   69.8349   37.8114 N   0  0  0  0  0  0  0  0  0  0  0  0
  -13.0901   69.2106   37.2165 C   0  0  0  0  0  0  0  0  0  0  0  0
  -13.2243   68.4041   36.2439 O   0  0  0  0  0  0  0  0  0  0  0  0
  -11.6911   69.4302   37.6614 C   0  0  2  0  0  0  0  0  0  0  0  0
  -11.0282   70.5574   36.8822 C   0  0  0  0  0  0  0  0  0  0  0  0
  -11.6292   71.8646   36.9356 C   0  0  0  0  0  0  0  0  0  0  0  0
  -11.4234   72.9520   37.7953 C   0  0  0  0  0  0  0  0  0  0  0  0
  -12.2323   73.9483   37.4047 N   0  0  0  0  0  0  0  0  0  0  0  0
  -12.9349   73.5588   36.3562 C   0  0  0  0  0  0  0  0  0  0  0  0
  -12.5814   72.3088   36.0648 N   0  0  0  0  0  0  0  0  0  0  0  0
  -10.9473   68.1986   37.2462 N   0  0  0  0  0  0  0  0  0  0  0  0
  -10.0574   67.6499   38.2109 C   0  0  0  0  0  0  0  0  0  0  0  0
   -9.8621   68.1244   39.3461 O   0  0  0  0  0  0  0  0  0  0  0  0
   -9.2945   66.4100   37.8507 C   0  0  2  0  0  0  0  0  0  0  0  0
  -10.3151   65.2778   38.0120 C   0  0  0  0  0  0  0  0  0  0  0  0
  -10.3034   65.0985   39.5173 C   0  0  0  0  0  0  0  0  0  0  0  0
   -8.9425   65.5585   39.9765 C   0  0  0  0  0  0  0  0  0  0  0  0
   -8.2807   66.1103   38.8320 N   0  0  0  0  0  0  0  0  0  0  0  0
  -19.0338   61.6508   41.3571 C   0  0  0  0  0  0  0  0  0  0  0  0
  -20.2319   60.8493   41.8726 C   0  0  0  0  0  0  0  0  0  0  0  0
  -17.7744   60.8586   41.7557 C   0  0  0  0  0  0  0  0  0  0  0  0
  -15.9634   65.9143   41.9252 C   0  0  0  0  0  0  0  0  0  0  0  0
  -16.7393   65.7644   42.9517 O   0  0  0  0  0  0  0  0  0  0  0  0
  -15.5128   67.2157   41.7018 N   0  0  0  0  0  0  0  0  0  0  0  0
  -15.8558   68.3503   42.5373 C   0  0  1  0  0  0  0  0  0  0  0  0
  -14.6562   69.0861   43.0514 C   0  0  0  0  0  0  0  0  0  0  0  0
  -14.9367   70.2491   43.8846 C   0  0  0  0  0  0  0  0  0  0  0  0
  -15.1150   70.3158   45.2419 C   0  0  0  0  0  0  0  0  0  0  0  0
  -15.3554   71.6011   45.5790 N   0  0  0  0  0  0  0  0  0  0  0  0
  -15.3352   72.3446   44.4880 C   0  0  0  0  0  0  0  0  0  0  0  0
  -15.0794   71.5330   43.4379 N   0  0  0  0  0  0  0  0  0  0  0  0
  -17.0036   69.1415   42.1186 C   0  0  0  0  0  0  0  0  0  0  0  0
  -17.2320   70.2344   42.7409 O   0  0  0  0  0  0  0  0  0  0  0  0
  -17.9161   68.8247   41.0824 N   0  0  0  0  0  0  0  0  0  0  0  0
  -19.0184   69.7724   40.8282 C   0  0  1  0  0  0  0  0  0  0  0  0
  -19.5722   69.7311   39.4651 C   0  0  0  0  0  0  0  0  0  0  0  0
  -20.6759   70.7584   39.3262 C   0  0  0  0  0  0  0  0  0  0  0  0
  -21.3054   70.7787   37.9521 C   0  0  0  0  0  0  0  0  0  0  0  0
  -20.3506   71.0577   36.8447 C   0  0  0  0  0  0  0  0  0  0  0  0
  -19.6865   72.3315   36.9739 N   0  0  0  0  0  0  0  0  0  0  0  0
  -20.1320   69.4266   41.8156 C   0  0  0  0  0  0  0  0  0  0  0  0
  -20.9528   70.3053   42.1841 O   0  0  0  0  0  0  0  0  0  0  0  0
  -20.2459   68.1326   42.3152 O   0  0  0  0  0  0  0  0  0  0  0  0
  1  2  1  0
  2  3  1  0
  3  4  1  6
  3  5  1  0
  5  6  1  1
  6  7  1  0
  7  8  2  0
  7  9  1  0
  9 10  1  6
 10 11  1  0
 11 12  2  0
 11 13  1  0
 13 14  1  0
 14 15  1  6
 14 16  1  0
 16 17  1  6
 17 18  1  0
 18 19  1  0
 18 20  1  0
 16 21  1  0
 21 22  1  0
 22 23  2  0
 22 24  1  0
 24 25  1  1
 25 26  1  0
 26 27  2  0
 27 28  1  0
 28 29  2  0
 29 30  1  0
 24 31  1  0
 31 32  1  0
 32 33  2  0
 32 34  1  0
 34 35  1  6
 35 36  1  0
 36 37  2  0
 37 38  1  0
 38 39  2  0
 39 40  1  0
 40 41  2  0
 34 42  1  0
 42 43  1  0
 43 44  2  0
 45 43  1  6
 45 46  1  0
 46 47  1  0
 47 48  1  0
 48 49  1  0
 49 50  1  0
 50 51  2  0
 50 52  1  0
 52 53  1  6
 53 54  1  0
 54 55  2  0
 55 56  1  0
 56 57  2  0
 57 58  1  0
 52 59  1  0
 59 60  1  0
 60 61  2  0
 62 60  1  1
 62 63  1  0
 63 64  1  0
 64 65  1  0
 65 66  1  0
  9 67  1  0
 67 68  1  0
 67 69  1  0
  5 70  1  0
 70 71  2  0
 70 72  1  0
 72 73  1  0
 73 74  1  6
 74 75  1  0
 75 76  2  0
 76 77  1  0
 77 78  2  0
 78 79  1  0
 73 80  1  0
 80 81  2  0
 80 82  1  0
 82 83  1  0
 83 84  1  6
 84 85  1  0
 85 86  1  0
 86 87  1  0
 87 88  1  0
 83 89  1  0
 89 90  2  0
 89 91  1  0
 30 26  1  0
 41 36  1  0
 49 45  1  0
 58 54  1  0
 66 62  1  0
 79 75  1  0
M  CHG  3  66   1  88   1  91  -1
M  END
>  <shape_align_shape_tanimoto>  (2) 
0.28390112054659705

>  <shape_align_color_tanimoto>  (2) 
0.053735255013215653

>  <metric>  (2) 
color

>  <metric_score>  (2) 
0.054

>  <template_pid>  (2) 
3ER5

>  <template_shape_score>  (2) 
0.284

>  <template_color_score>  (2) 
0.054

>  <template_combo_score>  (2) 
0.169

$$$$
3ER5_combo_pose
     RDKit          3D

 91 96  0  0  0  0  0  0  0  0999 V2000
  -17.4600   66.3837   45.5126 C   0  0  0  0  0  0  0  0  0  0  0  0
  -15.9462   66.4928   45.6720 C   0  0  0  0  0  0  0  0  0  0  0  0
  -15.1516   66.7039   44.4037 C   0  0  2  0  0  0  0  0  0  0  0  0
  -13.6220   66.7857   44.6521 C   0  0  0  0  0  0  0  0  0  0  0  0
  -15.6293   67.8216   43.5051 C   0  0  2  0  0  0  0  0  0  0  0  0
  -14.7394   67.8925   42.3145 N   0  0  0  0  0  0  0  0  0  0  0  0
  -15.2792   67.9872   41.0140 C   0  0  0  0  0  0  0  0  0  0  0  0
  -16.5848   68.0523   40.9324 O   0  0  0  0  0  0  0  0  0  0  0  0
  -14.5511   68.0197   39.7094 C   0  0  1  0  0  0  0  0  0  0  0  0
  -15.3877   68.2932   38.5660 N   0  0  0  0  0  0  0  0  0  0  0  0
  -16.5276   67.5554   38.1287 C   0  0  0  0  0  0  0  0  0  0  0  0
  -16.9274   66.5375   38.8480 O   0  0  0  0  0  0  0  0  0  0  0  0
  -17.3065   67.8405   36.9119 C   0  0  0  0  0  0  0  0  0  0  0  0
  -18.8098   67.6667   36.9244 C   0  0  2  0  0  0  0  0  0  0  0  0
  -19.2955   66.4347   37.3228 O   0  0  0  0  0  0  0  0  0  0  0  0
  -19.2379   67.9145   35.4030 C   0  0  2  0  0  0  0  0  0  0  0  0
  -20.4174   68.6986   35.1547 C   0  0  0  0  0  0  0  0  0  0  0  0
  -21.8181   68.4744   35.5564 C   0  0  0  0  0  0  0  0  0  0  0  0
  -22.4311   67.2041   34.9882 C   0  0  0  0  0  0  0  0  0  0  0  0
  -22.6500   69.6579   34.9467 C   0  0  0  0  0  0  0  0  0  0  0  0
  -18.7169   66.8210   34.5864 N   0  0  0  0  0  0  0  0  0  0  0  0
  -19.1923   65.4575   34.6657 C   0  0  0  0  0  0  0  0  0  0  0  0
  -20.1619   65.0925   35.4296 O   0  0  0  0  0  0  0  0  0  0  0  0
  -18.5952   64.2911   33.8772 C   0  0  2  0  0  0  0  0  0  0  0  0
  -18.6975   64.3011   32.4135 C   0  0  0  0  0  0  0  0  0  0  0  0
  -18.1094   65.4057   31.6230 C   0  0  0  0  0  0  0  0  0  0  0  0
  -16.7959   65.4671   31.1429 C   0  0  0  0  0  0  0  0  0  0  0  0
  -16.6810   66.6735   30.4768 N   0  0  0  0  0  0  0  0  0  0  0  0
  -17.8930   67.3245   30.5493 C   0  0  0  0  0  0  0  0  0  0  0  0
  -18.7902   66.5608   31.2534 N   0  0  0  0  0  0  0  0  0  0  0  0
  -19.4186   63.1132   34.3731 N   0  0  0  0  0  0  0  0  0  0  0  0
  -19.3098   62.7949   35.7771 C   0  0  0  0  0  0  0  0  0  0  0  0
  -18.5505   63.4613   36.5949 O   0  0  0  0  0  0  0  0  0  0  0  0
  -20.0862   61.6608   36.4049 C   0  0  2  0  0  0  0  0  0  0  0  0
  -21.4226   61.4764   35.7059 C   0  0  0  0  0  0  0  0  0  0  0  0
  -22.2311   60.3352   36.3307 C   0  0  0  0  0  0  0  0  0  0  0  0
  -21.9885   59.0424   35.8329 C   0  0  0  0  0  0  0  0  0  0  0  0
  -22.6874   57.9244   36.3295 C   0  0  0  0  0  0  0  0  0  0  0  0
  -23.6481   58.1400   37.3514 C   0  0  0  0  0  0  0  0  0  0  0  0
  -23.8649   59.4434   37.8234 C   0  0  0  0  0  0  0  0  0  0  0  0
  -23.1756   60.5510   37.3342 C   0  0  0  0  0  0  0  0  0  0  0  0
  -20.2944   61.8333   37.8469 N   0  0  0  0  0  0  0  0  0  0  0  0
  -19.7299   61.0908   38.8954 C   0  0  0  0  0  0  0  0  0  0  0  0
  -18.9217   60.1173   38.5637 O   0  0  0  0  0  0  0  0  0  0  0  0
  -19.9299   61.2590   40.3815 C   0  0  2  0  0  0  0  0  0  0  0  0
  -20.7920   60.0947   40.9103 C   0  0  0  0  0  0  0  0  0  0  0  0
  -21.4289   60.6689   42.1652 C   0  0  0  0  0  0  0  0  0  0  0  0
  -21.6654   62.1720   41.8332 C   0  0  0  0  0  0  0  0  0  0  0  0
  -20.5880   62.4523   40.8346 N   0  0  0  0  0  0  0  0  0  0  0  0
  -20.2969   63.7940   40.4060 C   0  0  0  0  0  0  0  0  0  0  0  0
  -19.2628   63.9237   39.6050 O   0  0  0  0  0  0  0  0  0  0  0  0
  -20.9838   65.0666   40.7225 C   0  0  2  0  0  0  0  0  0  0  0  0
  -19.9358   66.1237   41.2290 C   0  0  0  0  0  0  0  0  0  0  0  0
  -20.5540   67.4472   41.5115 C   0  0  0  0  0  0  0  0  0  0  0  0
  -21.8755   67.8488   41.2748 C   0  0  0  0  0  0  0  0  0  0  0  0
  -22.0561   69.1582   41.6228 N   0  0  0  0  0  0  0  0  0  0  0  0
  -20.8550   69.5964   42.0826 C   0  0  0  0  0  0  0  0  0  0  0  0
  -19.9395   68.5755   42.0205 N   0  0  0  0  0  0  0  0  0  0  0  0
  -22.1279   65.0427   41.6241 N   0  0  0  0  0  0  0  0  0  0  0  0
  -22.1719   65.4311   42.9956 C   0  0  0  0  0  0  0  0  0  0  0  0
  -21.1214   65.8503   43.6615 O   0  0  0  0  0  0  0  0  0  0  0  0
  -23.4326   65.4079   43.8494 C   0  0  2  0  0  0  0  0  0  0  0  0
  -23.3643   64.2999   44.9079 C   0  0  0  0  0  0  0  0  0  0  0  0
  -24.6388   63.4504   44.7280 C   0  0  0  0  0  0  0  0  0  0  0  0
  -25.1400   63.8176   43.3061 C   0  0  0  0  0  0  0  0  0  0  0  0
  -24.6622   65.1744   43.1489 N   0  0  0  0  0  0  0  0  0  0  0  0
  -13.1603   68.5163   39.7474 C   0  0  0  0  0  0  0  0  0  0  0  0
  -12.2344   67.6249   40.5569 C   0  0  0  0  0  0  0  0  0  0  0  0
  -12.5333   68.7556   38.3549 C   0  0  0  0  0  0  0  0  0  0  0  0
  -15.8163   69.1561   44.1747 C   0  0  0  0  0  0  0  0  0  0  0  0
  -16.5923   69.2157   45.2220 O   0  0  0  0  0  0  0  0  0  0  0  0
  -15.1652   70.3770   43.6909 N   0  0  0  0  0  0  0  0  0  0  0  0
  -15.4328   71.6679   44.4317 C   0  0  1  0  0  0  0  0  0  0  0  0
  -14.0935   72.1948   44.9300 C   0  0  0  0  0  0  0  0  0  0  0  0
  -14.1801   73.4801   45.6749 C   0  0  0  0  0  0  0  0  0  0  0  0
  -14.0499   74.7996   45.1382 C   0  0  0  0  0  0  0  0  0  0  0  0
  -14.1786   75.6610   46.2103 N   0  0  0  0  0  0  0  0  0  0  0  0
  -14.3755   74.9150   47.3252 C   0  0  0  0  0  0  0  0  0  0  0  0
  -14.3818   73.5748   47.0335 N   0  0  0  0  0  0  0  0  0  0  0  0
  -16.2144   72.6025   43.5819 C   0  0  0  0  0  0  0  0  0  0  0  0
  -16.3334   72.3493   42.3291 O   0  0  0  0  0  0  0  0  0  0  0  0
  -16.8440   73.7738   44.1187 N   0  0  0  0  0  0  0  0  0  0  0  0
  -17.6282   74.7315   43.3107 C   0  0  1  0  0  0  0  0  0  0  0  0
  -19.1181   74.3390   43.5871 C   0  0  0  0  0  0  0  0  0  0  0  0
  -20.0969   75.2363   42.8217 C   0  0  0  0  0  0  0  0  0  0  0  0
  -19.9097   75.1698   41.3023 C   0  0  0  0  0  0  0  0  0  0  0  0
  -20.9321   76.1135   40.6338 C   0  0  0  0  0  0  0  0  0  0  0  0
  -22.2981   75.7268   40.9647 N   0  0  0  0  0  0  0  0  0  0  0  0
  -17.4326   76.1429   43.7315 C   0  0  0  0  0  0  0  0  0  0  0  0
  -16.4243   76.7832   43.2924 O   0  0  0  0  0  0  0  0  0  0  0  0
  -18.2958   76.8448   44.6045 O   0  0  0  0  0  0  0  0  0  0  0  0
  1  2  1  0
  2  3  1  0
  3  4  1  1
  3  5  1  0
  5  6  1  6
  6  7  1  0
  7  8  2  0
  7  9  1  0
  9 10  1  6
 10 11  1  0
 11 12  2  0
 11 13  1  0
 13 14  1  0
 14 15  1  6
 14 16  1  0
 16 17  1  1
 17 18  1  0
 18 19  1  0
 18 20  1  0
 16 21  1  0
 21 22  1  0
 22 23  2  0
 22 24  1  0
 24 25  1  6
 25 26  1  0
 26 27  2  0
 27 28  1  0
 28 29  2  0
 29 30  1  0
 24 31  1  0
 31 32  1  0
 32 33  2  0
 32 34  1  0
 34 35  1  6
 35 36  1  0
 36 37  2  0
 37 38  1  0
 38 39  2  0
 39 40  1  0
 40 41  2  0
 34 42  1  0
 42 43  1  0
 43 44  2  0
 45 43  1  6
 45 46  1  0
 46 47  1  0
 47 48  1  0
 48 49  1  0
 49 50  1  0
 50 51  2  0
 50 52  1  0
 52 53  1  1
 53 54  1  0
 54 55  2  0
 55 56  1  0
 56 57  2  0
 57 58  1  0
 52 59  1  0
 59 60  1  0
 60 61  2  0
 62 60  1  6
 62 63  1  0
 63 64  1  0
 64 65  1  0
 65 66  1  0
  9 67  1  0
 67 68  1  0
 67 69  1  0
  5 70  1  0
 70 71  2  0
 70 72  1  0
 72 73  1  0
 73 74  1  6
 74 75  1  0
 75 76  2  0
 76 77  1  0
 77 78  2  0
 78 79  1  0
 73 80  1  0
 80 81  2  0
 80 82  1  0
 82 83  1  0
 83 84  1  1
 84 85  1  0
 85 86  1  0
 86 87  1  0
 87 88  1  0
 83 89  1  0
 89 90  2  0
 89 91  1  0
 30 26  1  0
 41 36  1  0
 49 45  1  0
 58 54  1  0
 66 62  1  0
 79 75  1  0
M  CHG  3  66   1  88   1  91  -1
M  END
>  <shape_align_shape_tanimoto>  (3) 
0.35955969356944001

>  <shape_align_color_tanimoto>  (3) 
0.009596711538158333

>  <metric>  (3) 
combo

>  <metric_score>  (3) 
0.185

>  <template_pid>  (3) 
3ER5

>  <template_shape_score>  (3) 
0.360

>  <template_color_score>  (3) 
0.010

>  <template_combo_score>  (3) 
0.185

$$$$
