6QRD_shape_pose
     RDKit          3D

 34 38  0  0  0  0  0  0  0  0999 V2000
   22.8682   19.1015   33.0241 C   0  0  0  0  0  0  0  0  0  0  0  0
   22.1968   19.5097   31.7397 C   0  0  0  0  0  0  0  0  0  0  0  0
   23.2373   20.0809   30.8031 C   0  0  0  0  0  0  0  0  0  0  0  0
   21.0704   20.3798   31.9320 N   0  0  1  0  0  0  0  0  0  0  0  0
   21.4105   21.7170   32.3112 C   0  0  0  0  0  0  0  0  0  0  0  0
   21.1657   22.6626   31.1658 C   0  0  0  0  0  0  0  0  0  0  0  0
   19.7502   22.7228   30.8547 N   0  0  1  0  0  0  0  0  0  0  0  0
   19.5057   23.4746   29.6554 C   0  0  0  0  0  0  0  0  0  0  0  0
   20.4365   23.1811   28.5500 C   0  0  0  0  0  0  0  0  0  0  0  0
   20.2249   22.2059   27.5978 C   0  0  0  0  0  0  0  0  0  0  0  0
   21.1152   21.9519   26.5713 C   0  0  0  0  0  0  0  0  0  0  0  0
   22.2918   22.6985   26.4650 C   0  0  0  0  0  0  0  0  0  0  0  0
   23.2468   22.4330   25.3719 C   0  0  0  0  0  0  0  0  0  0  0  0
   22.8800   23.2712   24.2472 N   0  0  0  0  0  0  0  0  0  0  0  0
   22.0151   22.8649   23.2889 C   0  0  0  0  0  0  0  0  0  0  0  0
   21.8475   23.8563   22.3425 C   0  0  0  0  0  0  0  0  0  0  0  0
   22.6417   24.8946   22.7495 C   0  0  0  0  0  0  0  0  0  0  0  0
   22.8436   26.1281   22.1637 C   0  0  0  0  0  0  0  0  0  0  0  0
   23.7229   27.0046   22.8083 C   0  0  0  0  0  0  0  0  0  0  0  0
   24.3374   26.6221   23.9663 C   0  0  0  0  0  0  0  0  0  0  0  0
   25.2465   27.5780   24.5975 C   0  0  0  0  0  0  0  0  0  0  0  0
   26.1996   28.3324   23.9991 N   0  0  0  0  0  0  0  0  0  0  0  0
   26.8348   29.0862   24.8767 N   0  0  0  0  0  0  0  0  0  0  0  0
   26.3013   28.8364   26.0888 C   0  0  0  0  0  0  0  0  0  0  0  0
   26.6753   29.4269   27.3508 N   0  0  0  0  0  0  0  0  0  0  0  0
   25.2884   27.8813   25.9449 C   0  0  0  0  0  0  0  0  0  0  0  0
   24.4892   27.3601   27.0125 C   0  0  0  0  0  0  0  0  0  0  0  0
   23.8462   26.9639   27.8625 N   0  0  0  0  0  0  0  0  0  0  0  0
   24.1340   25.3792   24.5567 C   0  0  0  0  0  0  0  0  0  0  0  0
   23.2653   24.5083   23.9233 C   0  0  0  0  0  0  0  0  0  0  0  0
   22.4862   23.6641   27.4203 C   0  0  0  0  0  0  0  0  0  0  0  0
   21.6001   23.9210   28.4466 C   0  0  0  0  0  0  0  0  0  0  0  0
   19.1560   21.4228   30.8120 C   0  0  0  0  0  0  0  0  0  0  0  0
   20.1934   20.3119   30.7858 C   0  0  0  0  0  0  0  0  0  0  0  0
  1  2  1  0
  2  3  1  0
  4  2  1  6
  4  5  1  0
  5  6  1  0
  6  7  1  0
  7  8  1  6
  8  9  1  0
  9 10  2  0
 10 11  1  0
 11 12  2  0
 12 13  1  0
 13 14  1  0
 14 15  1  0
 15 16  2  0
 16 17  1  0
 17 18  2  0
 18 19  1  0
 19 20  2  0
 20 21  1  0
 21 22  2  0
 22 23  1  0
 23 24  1  0
 24 25  1  0
 24 26  2  0
 26 27  1  0
 27 28  3  0
 20 29  1  0
 29 30  2  0
 12 31  1  0
 31 32  2  0
  7 33  1  0
 33 34  1  0
 34  4  1  0
 32  9  1  0
 30 14  1  0
 30 17  1  0
 26 21  1  0
M  CHG  2   4   1   7   1
M  END
>  <shape_align_shape_tanimoto>  (1) 
0.62004197682607465

>  <shape_align_color_tanimoto>  (1) 
0.021843556844255561

>  <metric>  (1) 
shape

>  <metric_score>  (1) 
0.620

>  <template_pid>  (1) 
6QRD

>  <template_shape_score>  (1) 
0.620

>  <template_color_score>  (1) 
0.022

>  <template_combo_score>  (1) 
0.321

$$$$
6QRD_color_pose
     RDKit          3D

 34 38  0  0  0  0  0  0  0  0999 V2000
   24.2312   18.4678   32.7238 C   0  0  0  0  0  0  0  0  0  0  0  0
   24.1809   18.8927   31.2656 C   0  0  0  0  0  0  0  0  0  0  0  0
   25.5346   19.5303   30.9280 C   0  0  0  0  0  0  0  0  0  0  0  0
   23.1834   19.9269   31.0616 N   0  0  1  0  0  0  0  0  0  0  0  0
   22.9230   20.1193   29.6387 C   0  0  0  0  0  0  0  0  0  0  0  0
   21.5740   20.8455   29.4368 C   0  0  0  0  0  0  0  0  0  0  0  0
   21.4441   21.7821   30.5535 N   0  0  1  0  0  0  0  0  0  0  0  0
   20.4218   22.7820   30.3692 C   0  0  0  0  0  0  0  0  0  0  0  0
   20.8343   23.9689   29.5866 C   0  0  0  0  0  0  0  0  0  0  0  0
   21.3820   25.0688   30.2668 C   0  0  0  0  0  0  0  0  0  0  0  0
   21.7841   26.2097   29.5620 C   0  0  0  0  0  0  0  0  0  0  0  0
   21.6665   26.3153   28.1822 C   0  0  0  0  0  0  0  0  0  0  0  0
   22.0903   27.5221   27.4244 C   0  0  0  0  0  0  0  0  0  0  0  0
   23.4847   27.4086   27.0158 N   0  0  0  0  0  0  0  0  0  0  0  0
   24.5496   27.8429   27.7682 C   0  0  0  0  0  0  0  0  0  0  0  0
   25.7348   27.5951   27.1119 C   0  0  0  0  0  0  0  0  0  0  0  0
   25.4082   26.9860   25.9091 C   0  0  0  0  0  0  0  0  0  0  0  0
   26.2313   26.5429   24.8995 C   0  0  0  0  0  0  0  0  0  0  0  0
   25.6271   25.9614   23.7884 C   0  0  0  0  0  0  0  0  0  0  0  0
   24.2245   25.8522   23.7430 C   0  0  0  0  0  0  0  0  0  0  0  0
   23.6808   25.2219   22.5242 C   0  0  0  0  0  0  0  0  0  0  0  0
   24.0229   25.4455   21.2297 N   0  0  0  0  0  0  0  0  0  0  0  0
   23.2849   24.6609   20.4222 N   0  0  0  0  0  0  0  0  0  0  0  0
   22.4436   23.9066   21.1713 C   0  0  0  0  0  0  0  0  0  0  0  0
   21.4773   22.9318   20.7413 N   0  0  0  0  0  0  0  0  0  0  0  0
   22.6785   24.2463   22.5023 C   0  0  0  0  0  0  0  0  0  0  0  0
   21.9759   23.6587   23.6336 C   0  0  0  0  0  0  0  0  0  0  0  0
   21.4206   23.1755   24.5377 N   0  0  0  0  0  0  0  0  0  0  0  0
   23.4249   26.3089   24.7771 C   0  0  0  0  0  0  0  0  0  0  0  0
   24.0232   26.8899   25.8881 C   0  0  0  0  0  0  0  0  0  0  0  0
   21.1175   25.2111   27.5071 C   0  0  0  0  0  0  0  0  0  0  0  0
   20.7173   24.0750   28.2100 C   0  0  0  0  0  0  0  0  0  0  0  0
   21.1299   20.9571   31.7157 C   0  0  0  0  0  0  0  0  0  0  0  0
   21.8963   19.6371   31.6790 C   0  0  0  0  0  0  0  0  0  0  0  0
  1  2  1  0
  2  3  1  0
  4  2  1  6
  4  5  1  0
  5  6  1  0
  6  7  1  0
  7  8  1  6
  8  9  1  0
  9 10  2  0
 10 11  1  0
 11 12  2  0
 12 13  1  0
 13 14  1  0
 14 15  1  0
 15 16  2  0
 16 17  1  0
 17 18  2  0
 18 19  1  0
 19 20  2  0
 20 21  1  0
 21 22  2  0
 22 23  1  0
 23 24  1  0
 24 25  1  0
 24 26  2  0
 26 27  1  0
 27 28  3  0
 20 29  1  0
 29 30  2  0
 12 31  1  0
 31 32  2  0
  7 33  1  0
 33 34  1  0
 34  4  1  0
 32  9  1  0
 30 14  1  0
 30 17  1  0
 26 21  1  0
M  CHG  2   4   1   7   1
M  END
>  <shape_align_shape_tanimoto>  (2) 
0.54738539237780148

>  <shape_align_color_tanimoto>  (2) 
0.069767123027355105

>  <metric>  (2) 
color

>  <metric_score>  (2) 
0.070

>  <template_pid>  (2) 
6QRD

>  <template_shape_score>  (2) 
0.547

>  <template_color_score>  (2) 
0.070

>  <template_combo_score>  (2) 
0.309

$$$$
6QRD_combo_pose
     RDKit          3D

 34 38  0  0  0  0  0  0  0  0999 V2000
   22.1162   17.6491   29.7910 C   0  0  0  0  0  0  0  0  0  0  0  0
   20.9873   18.5307   29.2845 C   0  0  0  0  0  0  0  0  0  0  0  0
   20.1034   17.6209   28.4239 C   0  0  0  0  0  0  0  0  0  0  0  0
   20.2252   18.9132   30.4864 N   0  0  1  0  0  0  0  0  0  0  0  0
   21.0625   19.1148   31.6255 C   0  0  0  0  0  0  0  0  0  0  0  0
   20.8118   20.3789   32.3803 C   0  0  0  0  0  0  0  0  0  0  0  0
   20.7591   21.4859   31.4283 N   0  0  1  0  0  0  0  0  0  0  0  0
   22.0285   21.7233   30.8127 C   0  0  0  0  0  0  0  0  0  0  0  0
   21.9857   22.9434   29.9904 C   0  0  0  0  0  0  0  0  0  0  0  0
   21.7243   22.9722   28.6390 C   0  0  0  0  0  0  0  0  0  0  0  0
   21.6952   24.1606   27.9409 C   0  0  0  0  0  0  0  0  0  0  0  0
   21.9243   25.3651   28.5562 C   0  0  0  0  0  0  0  0  0  0  0  0
   21.9042   26.6653   27.8519 C   0  0  0  0  0  0  0  0  0  0  0  0
   23.2000   27.0446   27.3259 N   0  0  0  0  0  0  0  0  0  0  0  0
   24.1750   27.7603   27.9299 C   0  0  0  0  0  0  0  0  0  0  0  0
   25.2551   27.8955   27.0713 C   0  0  0  0  0  0  0  0  0  0  0  0
   24.9189   27.2356   25.9032 C   0  0  0  0  0  0  0  0  0  0  0  0
   25.6178   27.0633   24.7438 C   0  0  0  0  0  0  0  0  0  0  0  0
   25.0610   26.3521   23.6960 C   0  0  0  0  0  0  0  0  0  0  0  0
   23.7781   25.8106   23.8307 C   0  0  0  0  0  0  0  0  0  0  0  0
   23.2448   25.0801   22.7123 C   0  0  0  0  0  0  0  0  0  0  0  0
   23.3177   25.5002   21.4326 N   0  0  0  0  0  0  0  0  0  0  0  0
   22.7453   24.6314   20.6114 N   0  0  0  0  0  0  0  0  0  0  0  0
   22.2657   23.5865   21.3416 C   0  0  0  0  0  0  0  0  0  0  0  0
   21.5845   22.4486   20.8287 N   0  0  0  0  0  0  0  0  0  0  0  0
   22.5779   23.8652   22.6623 C   0  0  0  0  0  0  0  0  0  0  0  0
   22.2756   23.0536   23.8055 C   0  0  0  0  0  0  0  0  0  0  0  0
   22.0323   22.3859   24.7194 N   0  0  0  0  0  0  0  0  0  0  0  0
   23.1104   26.0110   25.0216 C   0  0  0  0  0  0  0  0  0  0  0  0
   23.6348   26.7113   26.0794 C   0  0  0  0  0  0  0  0  0  0  0  0
   22.1873   25.3547   29.9064 C   0  0  0  0  0  0  0  0  0  0  0  0
   22.2158   24.1685   30.6006 C   0  0  0  0  0  0  0  0  0  0  0  0
   19.6489   21.3284   30.5527 C   0  0  0  0  0  0  0  0  0  0  0  0
   19.2690   19.9304   30.2095 C   0  0  0  0  0  0  0  0  0  0  0  0
  1  2  1  0
  2  3  1  0
  4  2  1  6
  4  5  1  0
  5  6  1  0
  6  7  1  0
  7  8  1  6
  8  9  1  0
  9 10  2  0
 10 11  1  0
 11 12  2  0
 12 13  1  0
 13 14  1  0
 14 15  1  0
 15 16  2  0
 16 17  1  0
 17 18  2  0
 18 19  1  0
 19 20  2  0
 20 21  1  0
 21 22  2  0
 22 23  1  0
 23 24  1  0
 24 25  1  0
 24 26  2  0
 26 27  1  0
 27 28  3  0
 20 29  1  0
 29 30  2  0
 12 31  1  0
 31 32  2  0
  7 33  1  0
 33 34  1  0
 34  4  1  0
 32  9  1  0
 30 14  1  0
 30 17  1  0
 26 21  1  0
M  CHG  2   4   1   7   1
M  END
>  <shape_align_shape_tanimoto>  (3) 
0.60290704239592596

>  <shape_align_color_tanimoto>  (3) 
0.068235553303600524

>  <metric>  (3) 
combo

>  <metric_score>  (3) 
0.336

>  <template_pid>  (3) 
6QRD

>  <template_shape_score>  (3) 
0.603

>  <template_color_score>  (3) 
0.068

>  <template_combo_score>  (3) 
0.336

$$$$
