4CLB_shape_pose
     RDKit          3D

 24 27  0  0  0  0  0  0  0  0999 V2000
    4.3703  -23.7022  -30.5617 O   0  0  0  0  0  0  0  0  0  0  0  0
    4.3182  -25.0080  -30.0716 C   0  0  0  0  0  0  0  0  0  0  0  0
    5.4569  -25.7989  -30.1216 C   0  0  0  0  0  0  0  0  0  0  0  0
    5.4062  -27.1051  -29.6319 C   0  0  0  0  0  0  0  0  0  0  0  0
    4.2298  -27.6136  -29.0983 C   0  0  0  0  0  0  0  0  0  0  0  0
    3.1110  -26.8027  -29.0614 C   0  0  0  0  0  0  0  0  0  0  0  0
    1.8270  -27.2683  -28.5114 C   0  0  0  0  0  0  0  0  0  0  0  0
    1.6102  -27.6653  -27.2664 N   0  0  0  0  0  0  0  0  0  0  0  0
    0.3131  -28.0125  -27.1558 C   0  0  0  0  0  0  0  0  0  0  0  0
   -0.3842  -28.5125  -25.9631 C   0  0  0  0  0  0  0  0  0  0  0  0
   -1.7241  -28.8379  -25.9728 C   0  0  0  0  0  0  0  0  0  0  0  0
   -2.3386  -29.3088  -24.8094 C   0  0  0  0  0  0  0  0  0  0  0  0
   -1.6044  -29.4514  -23.6384 C   0  0  0  0  0  0  0  0  0  0  0  0
   -0.2586  -29.1274  -23.6185 C   0  0  0  0  0  0  0  0  0  0  0  0
    0.3347  -28.6584  -24.7945 C   0  0  0  0  0  0  0  0  0  0  0  0
   -0.3102  -27.8349  -28.3497 N   0  0  0  0  0  0  0  0  0  0  0  0
    0.6286  -27.3708  -29.1989 C   0  0  0  0  0  0  0  0  0  0  0  0
    0.5076  -27.0121  -30.6047 C   0  0  0  0  0  0  0  0  0  0  0  0
    1.2201  -27.7018  -31.5710 C   0  0  0  0  0  0  0  0  0  0  0  0
    1.1181  -27.3741  -32.9199 C   0  0  0  0  0  0  0  0  0  0  0  0
    0.3017  -26.3551  -33.2957 N   0  0  0  0  0  0  0  0  0  0  0  0
   -0.4130  -25.6552  -32.3780 C   0  0  0  0  0  0  0  0  0  0  0  0
   -0.3118  -25.9809  -31.0361 C   0  0  0  0  0  0  0  0  0  0  0  0
    3.1346  -25.4922  -29.5447 C   0  0  0  0  0  0  0  0  0  0  0  0
  1  2  1  0
  2  3  2  0
  3  4  1  0
  4  5  2  0
  5  6  1  0
  6  7  1  0
  7  8  1  0
  8  9  1  0
  9 10  1  0
 10 11  2  0
 11 12  1  0
 12 13  2  0
 13 14  1  0
 14 15  2  0
  9 16  2  0
 16 17  1  0
 17 18  1  0
 18 19  2  0
 19 20  1  0
 20 21  2  0
 21 22  1  0
 22 23  2  0
  6 24  2  0
 24  2  1  0
 17  7  2  0
 23 18  1  0
 15 10  1  0
M  END
>  <shape_align_shape_tanimoto>  (1) 
0.65209238534981639

>  <shape_align_color_tanimoto>  (1) 
0.17463365259652977

>  <metric>  (1) 
shape

>  <metric_score>  (1) 
0.652

>  <template_pid>  (1) 
4CLB

>  <template_shape_score>  (1) 
0.652

>  <template_color_score>  (1) 
0.175

>  <template_combo_score>  (1) 
0.413

$$$$
4CLB_color_pose
     RDKit          3D

 24 27  0  0  0  0  0  0  0  0999 V2000
    4.3214  -23.6776  -30.6245 O   0  0  0  0  0  0  0  0  0  0  0  0
    4.2597  -24.9622  -30.1035 C   0  0  0  0  0  0  0  0  0  0  0  0
    5.4044  -25.7380  -30.1644 C   0  0  0  0  0  0  0  0  0  0  0  0
    5.4017  -27.0303  -29.6593 C   0  0  0  0  0  0  0  0  0  0  0  0
    4.2632  -27.5734  -29.0858 C   0  0  0  0  0  0  0  0  0  0  0  0
    3.1235  -26.7894  -29.0297 C   0  0  0  0  0  0  0  0  0  0  0  0
    1.8690  -27.2640  -28.4493 C   0  0  0  0  0  0  0  0  0  0  0  0
    1.6175  -27.6776  -27.1899 N   0  0  0  0  0  0  0  0  0  0  0  0
    0.3240  -28.0341  -27.0736 C   0  0  0  0  0  0  0  0  0  0  0  0
   -0.3576  -28.5356  -25.8830 C   0  0  0  0  0  0  0  0  0  0  0  0
    0.3680  -28.6781  -24.7159 C   0  0  0  0  0  0  0  0  0  0  0  0
   -0.3429  -29.1602  -23.6186 C   0  0  0  0  0  0  0  0  0  0  0  0
   -1.6809  -29.4739  -23.6934 C   0  0  0  0  0  0  0  0  0  0  0  0
   -2.3974  -29.3255  -24.8741 C   0  0  0  0  0  0  0  0  0  0  0  0
   -1.6988  -28.8475  -25.9679 C   0  0  0  0  0  0  0  0  0  0  0  0
   -0.2155  -27.8303  -28.2915 N   0  0  0  0  0  0  0  0  0  0  0  0
    0.6862  -27.3642  -29.1544 C   0  0  0  0  0  0  0  0  0  0  0  0
    0.5219  -27.0127  -30.5618 C   0  0  0  0  0  0  0  0  0  0  0  0
   -0.3535  -26.0216  -30.9808 C   0  0  0  0  0  0  0  0  0  0  0  0
   -0.4257  -25.7739  -32.3393 C   0  0  0  0  0  0  0  0  0  0  0  0
    0.3072  -26.4471  -33.2356 N   0  0  0  0  0  0  0  0  0  0  0  0
    1.1664  -27.4151  -32.8605 C   0  0  0  0  0  0  0  0  0  0  0  0
    1.2707  -27.6966  -31.5081 C   0  0  0  0  0  0  0  0  0  0  0  0
    3.1279  -25.4987  -29.5347 C   0  0  0  0  0  0  0  0  0  0  0  0
  1  2  1  0
  2  3  2  0
  3  4  1  0
  4  5  2  0
  5  6  1  0
  6  7  1  0
  7  8  1  0
  8  9  1  0
  9 10  1  0
 10 11  2  0
 11 12  1  0
 12 13  2  0
 13 14  1  0
 14 15  2  0
  9 16  2  0
 16 17  1  0
 17 18  1  0
 18 19  2  0
 19 20  1  0
 20 21  2  0
 21 22  1  0
 22 23  2  0
  6 24  2  0
 24  2  1  0
 17  7  2  0
 23 18  1  0
 15 10  1  0
M  END
>  <shape_align_shape_tanimoto>  (2) 
0.64885103124334931

>  <shape_align_color_tanimoto>  (2) 
0.18320606802488504

>  <metric>  (2) 
color

>  <metric_score>  (2) 
0.183

>  <template_pid>  (2) 
4CLB

>  <template_shape_score>  (2) 
0.649

>  <template_color_score>  (2) 
0.183

>  <template_combo_score>  (2) 
0.416

$$$$
4CLB_combo_pose
     RDKit          3D

 24 27  0  0  0  0  0  0  0  0999 V2000
    4.3214  -23.6776  -30.6245 O   0  0  0  0  0  0  0  0  0  0  0  0
    4.2597  -24.9622  -30.1035 C   0  0  0  0  0  0  0  0  0  0  0  0
    5.4044  -25.7380  -30.1644 C   0  0  0  0  0  0  0  0  0  0  0  0
    5.4017  -27.0303  -29.6593 C   0  0  0  0  0  0  0  0  0  0  0  0
    4.2632  -27.5734  -29.0858 C   0  0  0  0  0  0  0  0  0  0  0  0
    3.1235  -26.7894  -29.0297 C   0  0  0  0  0  0  0  0  0  0  0  0
    1.8690  -27.2640  -28.4493 C   0  0  0  0  0  0  0  0  0  0  0  0
    1.6175  -27.6776  -27.1899 N   0  0  0  0  0  0  0  0  0  0  0  0
    0.3240  -28.0341  -27.0736 C   0  0  0  0  0  0  0  0  0  0  0  0
   -0.3576  -28.5356  -25.8830 C   0  0  0  0  0  0  0  0  0  0  0  0
    0.3680  -28.6781  -24.7159 C   0  0  0  0  0  0  0  0  0  0  0  0
   -0.3429  -29.1602  -23.6186 C   0  0  0  0  0  0  0  0  0  0  0  0
   -1.6809  -29.4739  -23.6934 C   0  0  0  0  0  0  0  0  0  0  0  0
   -2.3974  -29.3255  -24.8741 C   0  0  0  0  0  0  0  0  0  0  0  0
   -1.6988  -28.8475  -25.9679 C   0  0  0  0  0  0  0  0  0  0  0  0
   -0.2155  -27.8303  -28.2915 N   0  0  0  0  0  0  0  0  0  0  0  0
    0.6862  -27.3642  -29.1544 C   0  0  0  0  0  0  0  0  0  0  0  0
    0.5219  -27.0127  -30.5618 C   0  0  0  0  0  0  0  0  0  0  0  0
   -0.3535  -26.0216  -30.9808 C   0  0  0  0  0  0  0  0  0  0  0  0
   -0.4257  -25.7739  -32.3393 C   0  0  0  0  0  0  0  0  0  0  0  0
    0.3072  -26.4471  -33.2356 N   0  0  0  0  0  0  0  0  0  0  0  0
    1.1664  -27.4151  -32.8605 C   0  0  0  0  0  0  0  0  0  0  0  0
    1.2707  -27.6966  -31.5081 C   0  0  0  0  0  0  0  0  0  0  0  0
    3.1279  -25.4987  -29.5347 C   0  0  0  0  0  0  0  0  0  0  0  0
  1  2  1  0
  2  3  2  0
  3  4  1  0
  4  5  2  0
  5  6  1  0
  6  7  1  0
  7  8  1  0
  8  9  1  0
  9 10  1  0
 10 11  2  0
 11 12  1  0
 12 13  2  0
 13 14  1  0
 14 15  2  0
  9 16  2  0
 16 17  1  0
 17 18  1  0
 18 19  2  0
 19 20  1  0
 20 21  2  0
 21 22  1  0
 22 23  2  0
  6 24  2  0
 24  2  1  0
 17  7  2  0
 23 18  1  0
 15 10  1  0
M  END
>  <shape_align_shape_tanimoto>  (3) 
0.64885103124334931

>  <shape_align_color_tanimoto>  (3) 
0.18320606802488504

>  <metric>  (3) 
combo

>  <metric_score>  (3) 
0.416

>  <template_pid>  (3) 
4CLB

>  <template_shape_score>  (3) 
0.649

>  <template_color_score>  (3) 
0.183

>  <template_combo_score>  (3) 
0.416

$$$$
