3ODI_shape_pose
     RDKit          3D

 86 86  0  0  0  0  0  0  0  0999 V2000
   -1.4048   15.6578   46.0596 C   0  0  0  0  0  0  0  0  0  0  0  0
   -0.3442   15.9034   45.7919 C   0  0  0  0  0  0  0  0  0  0  0  0
    1.0647   16.3386   45.2555 C   0  0  0  0  0  0  0  0  0  0  0  0
    1.9647   15.8106   46.0558 C   0  0  0  0  0  0  0  0  0  0  0  0
    3.3165   15.6443   46.3920 C   0  0  0  0  0  0  0  0  0  0  0  0
    3.7085   15.8555   47.8778 C   0  0  1  0  0  0  0  0  0  0  0  0
    3.1795   17.2027   48.2251 C   0  0  0  0  0  0  0  0  0  0  0  0
    3.1393   14.7150   48.6265 C   0  0  1  0  0  0  0  0  0  0  0  0
    3.6035   13.4998   48.0557 O   0  0  0  0  0  0  0  0  0  0  0  0
    3.2723   14.6334   50.1338 C   0  0  1  0  0  0  0  0  0  0  0  0
    2.6238   13.2766   50.4935 C   0  0  0  0  0  0  0  0  0  0  0  0
    3.4102   12.3615   50.5295 O   0  0  0  0  0  0  0  0  0  0  0  0
    1.2304   13.0906   50.7733 N   0  0  0  0  0  0  0  0  0  0  0  0
    0.7694   11.7353   50.8846 C   0  0  1  0  0  0  0  0  0  0  0  0
    1.8948   10.6837   50.9974 C   0  0  0  0  0  0  0  0  0  0  0  0
    1.2974    9.2760   51.0399 C   0  0  0  0  0  0  0  0  0  0  0  0
   -0.4370   11.2861   51.4671 C   0  0  0  0  0  0  0  0  0  0  0  0
   -0.2677   10.3074   52.3422 O   0  0  0  0  0  0  0  0  0  0  0  0
   -1.8378   11.5218   51.4440 N   0  0  0  0  0  0  0  0  0  0  0  0
   -2.3197   12.6222   50.6828 C   0  0  0  0  0  0  0  0  0  0  0  0
   -2.6962   10.5963   52.1620 C   0  0  0  0  0  0  0  0  0  0  0  0
   -3.1066   10.7955   53.5074 C   0  0  0  0  0  0  0  0  0  0  0  0
   -2.8798   11.8429   54.1352 O   0  0  0  0  0  0  0  0  0  0  0  0
   -3.8134    9.8618   54.3835 N   0  0  0  0  0  0  0  0  0  0  0  0
   -3.8736    8.5293   53.8131 C   0  0  0  0  0  0  0  0  0  0  0  0
   -4.3080   10.2003   55.6832 C   0  0  1  0  0  0  0  0  0  0  0  0
   -3.3197   10.7019   56.6455 C   0  0  0  0  0  0  0  0  0  0  0  0
   -3.8067   11.1051   58.0100 C   0  0  0  0  0  0  0  0  0  0  0  0
   -4.4999   10.0540   58.8072 C   0  0  0  0  0  0  0  0  0  0  0  0
   -2.5320   11.4628   58.8088 C   0  0  0  0  0  0  0  0  0  0  0  0
   -5.6014   10.9052   55.6255 C   0  0  0  0  0  0  0  0  0  0  0  0
   -5.9720   11.9117   56.2154 O   0  0  0  0  0  0  0  0  0  0  0  0
   -6.6733   10.3679   54.7356 N   0  0  0  0  0  0  0  0  0  0  0  0
   -7.9688   10.8784   54.6539 C   0  0  1  0  0  0  0  0  0  0  0  0
   -8.9546   10.4879   55.7144 C   0  0  0  0  0  0  0  0  0  0  0  0
   -9.1804    9.0050   55.8028 C   0  0  0  0  0  0  0  0  0  0  0  0
   -8.7037   11.0147   57.0879 C   0  0  0  0  0  0  0  0  0  0  0  0
   -8.1649   12.3442   54.3310 C   0  0  0  0  0  0  0  0  0  0  0  0
   -8.5761   13.1447   55.0818 O   0  0  0  0  0  0  0  0  0  0  0  0
   -7.8467   12.8114   52.9778 N   0  0  0  0  0  0  0  0  0  0  0  0
   -7.4494   11.8281   52.0629 C   0  0  0  0  0  0  0  0  0  0  0  0
   -7.9908   14.2605   52.6547 C   0  0  1  0  0  0  0  0  0  0  0  0
   -9.4213   14.5778   52.7046 C   0  0  0  0  0  0  0  0  0  0  0  0
   -9.8942   15.9551   52.4453 C   0  0  0  0  0  0  0  0  0  0  0  0
   -9.5352   16.5272   51.1165 C   0  0  0  0  0  0  0  0  0  0  0  0
   -9.6722   16.8929   53.6221 C   0  0  0  0  0  0  0  0  0  0  0  0
   -7.0224   14.9313   53.4530 C   0  0  0  0  0  0  0  0  0  0  0  0
   -6.3894   14.1479   54.2864 O   0  0  0  0  0  0  0  0  0  0  0  0
   -6.5647   16.2736   53.5688 N   0  0  0  0  0  0  0  0  0  0  0  0
   -5.6116   16.5524   54.6358 C   0  0  1  0  0  0  0  0  0  0  0  0
   -5.7951   15.7276   55.8939 C   0  0  0  0  0  0  0  0  0  0  0  0
   -4.2183   16.3834   54.1649 C   0  0  0  0  0  0  0  0  0  0  0  0
   -3.8645   16.6063   52.9974 O   0  0  0  0  0  0  0  0  0  0  0  0
   -3.2139   15.9351   55.0609 N   0  0  0  0  0  0  0  0  0  0  0  0
   -1.8569   15.6852   54.4894 C   0  0  2  0  0  0  0  0  0  0  0  0
   -2.1670   14.7461   53.2937 C   0  0  0  0  0  0  0  0  0  0  0  0
   -1.0083   15.0535   55.5316 C   0  0  0  0  0  0  0  0  0  0  0  0
   -1.2805   14.6817   56.6247 O   0  0  0  0  0  0  0  0  0  0  0  0
    0.3991   14.8473   55.1663 N   0  0  0  0  0  0  0  0  0  0  0  0
    0.7390   15.2446   53.8609 C   0  0  0  0  0  0  0  0  0  0  0  0
    1.3513   14.2601   56.1443 C   0  0  1  0  0  0  0  0  0  0  0  0
    1.9673   12.9784   55.6700 C   0  0  0  0  0  0  0  0  0  0  0  0
    1.0801   11.8332   55.3020 C   0  0  0  0  0  0  0  0  0  0  0  0
    0.2128   11.3828   56.4390 C   0  0  0  0  0  0  0  0  0  0  0  0
    2.0345   10.6694   54.9194 C   0  0  0  0  0  0  0  0  0  0  0  0
    2.3512   15.3233   56.2712 C   0  0  0  0  0  0  0  0  0  0  0  0
    1.8564   16.5229   56.2100 O   0  0  0  0  0  0  0  0  0  0  0  0
    3.7352   15.4162   56.4570 N   0  0  0  0  0  0  0  0  0  0  0  0
    4.3952   14.2691   57.0214 C   0  0  0  0  0  0  0  0  0  0  0  0
    4.5657   16.6019   56.2627 C   0  0  1  0  0  0  0  0  0  0  0  0
    5.3791   17.0285   57.4381 C   0  0  0  0  0  0  0  0  0  0  0  0
    4.6695   17.3863   58.6799 C   0  0  0  0  0  0  0  0  0  0  0  0
    3.6630   18.5058   58.5008 C   0  0  0  0  0  0  0  0  0  0  0  0
    4.0769   16.2764   59.4774 C   0  0  0  0  0  0  0  0  0  0  0  0
    5.5384   16.3146   55.1156 C   0  0  0  0  0  0  0  0  0  0  0  0
    6.7619   16.4115   55.2572 O   0  0  0  0  0  0  0  0  0  0  0  0
    5.1306   15.9375   53.8197 N   0  0  0  0  0  0  0  0  0  0  0  0
    3.8465   16.4643   53.4415 C   0  0  0  0  0  0  0  0  0  0  0  0
    6.0199   15.3983   52.7346 C   0  0  1  0  0  0  0  0  0  0  0  0
    6.4734   14.0071   53.3434 C   0  0  0  0  0  0  0  0  0  0  0  0
    7.5858   13.4798   52.5008 C   0  0  0  0  0  0  0  0  0  0  0  0
    5.3511   13.0388   53.4804 C   0  0  0  0  0  0  0  0  0  0  0  0
    5.1679   15.3520   51.6280 C   0  0  0  0  0  0  0  0  0  0  0  0
    4.5828   16.4890   51.2891 O   0  0  0  0  0  0  0  0  0  0  0  0
    4.6723   14.4148   50.6424 N   0  0  0  0  0  0  0  0  0  0  0  0
    5.5597   13.4447   50.1604 C   0  0  0  0  0  0  0  0  0  0  0  0
  1  2  2  0
  2  3  1  0
  3  4  2  0
  4  5  1  0
  5  6  1  0
  6  7  1  1
  6  8  1  0
  8  9  1  6
  8 10  1  0
 10 11  1  0
 11 12  2  0
 11 13  1  0
 13 14  1  0
 14 15  1  1
 15 16  1  0
 14 17  1  0
 17 18  2  0
 17 19  1  0
 19 20  1  0
 19 21  1  0
 21 22  1  0
 22 23  2  0
 22 24  1  0
 24 25  1  0
 24 26  1  0
 26 27  1  6
 27 28  1  0
 28 29  1  0
 28 30  1  0
 26 31  1  0
 31 32  2  0
 31 33  1  0
 33 34  1  0
 34 35  1  1
 35 36  1  0
 35 37  1  0
 34 38  1  0
 38 39  2  0
 38 40  1  0
 40 41  1  0
 40 42  1  0
 42 43  1  1
 43 44  1  0
 44 45  1  0
 44 46  1  0
 42 47  1  0
 47 48  2  0
 47 49  1  0
 49 50  1  0
 50 51  1  1
 50 52  1  0
 52 53  2  0
 52 54  1  0
 54 55  1  0
 55 56  1  6
 55 57  1  0
 57 58  2  0
 57 59  1  0
 59 60  1  0
 59 61  1  0
 61 62  1  6
 62 63  1  0
 63 64  1  0
 63 65  1  0
 61 66  1  0
 66 67  2  0
 66 68  1  0
 68 69  1  0
 68 70  1  0
 70 71  1  1
 71 72  1  0
 72 73  1  0
 72 74  1  0
 70 75  1  0
 75 76  2  0
 75 77  1  0
 77 78  1  0
 77 79  1  0
 79 80  1  1
 80 81  1  0
 80 82  1  0
 79 83  1  0
 83 84  2  0
 83 85  1  0
 85 86  1  0
 10 85  1  6
M  END
>  <shape_align_shape_tanimoto>  (1) 
0.38793925923092615

>  <shape_align_color_tanimoto>  (1) 
0.018293307480733753

>  <metric>  (1) 
shape

>  <metric_score>  (1) 
0.388

>  <template_pid>  (1) 
3ODI

>  <template_shape_score>  (1) 
0.388

>  <template_color_score>  (1) 
0.018

>  <template_combo_score>  (1) 
0.203

$$$$
3ODI_color_pose
     RDKit          3D

 86 86  0  0  0  0  0  0  0  0999 V2000
   -0.9318   14.8904   61.7717 C   0  0  0  0  0  0  0  0  0  0  0  0
   -0.0162   15.7245   61.2555 C   0  0  0  0  0  0  0  0  0  0  0  0
    1.3419   15.2822   60.9794 C   0  0  0  0  0  0  0  0  0  0  0  0
    2.2388   16.1194   60.4637 C   0  0  0  0  0  0  0  0  0  0  0  0
    3.6080   15.6999   60.1801 C   0  0  0  0  0  0  0  0  0  0  0  0
    4.0180   15.8076   58.7282 C   0  0  1  0  0  0  0  0  0  0  0  0
    3.0736   14.8972   57.9665 C   0  0  0  0  0  0  0  0  0  0  0  0
    3.8512   17.2525   58.2501 C   0  0  1  0  0  0  0  0  0  0  0  0
    4.6203   18.1079   59.0289 O   0  0  0  0  0  0  0  0  0  0  0  0
    4.1675   17.3760   56.7795 C   0  0  1  0  0  0  0  0  0  0  0  0
    3.7958   18.7512   56.3613 C   0  0  0  0  0  0  0  0  0  0  0  0
    4.5746   19.6635   56.0683 O   0  0  0  0  0  0  0  0  0  0  0  0
    2.4114   19.0676   56.2785 N   0  0  0  0  0  0  0  0  0  0  0  0
    1.8478   20.3076   55.8286 C   0  0  1  0  0  0  0  0  0  0  0  0
    1.3993   20.1234   54.3583 C   0  0  0  0  0  0  0  0  0  0  0  0
    0.3710   19.0438   54.2372 C   0  0  0  0  0  0  0  0  0  0  0  0
    0.6878   20.8180   56.5480 C   0  0  0  0  0  0  0  0  0  0  0  0
    0.0175   21.7275   56.0120 O   0  0  0  0  0  0  0  0  0  0  0  0
    0.1620   20.4598   57.8097 N   0  0  0  0  0  0  0  0  0  0  0  0
    0.9610   19.6622   58.6621 C   0  0  0  0  0  0  0  0  0  0  0  0
   -1.1847   20.9583   58.2463 C   0  0  0  0  0  0  0  0  0  0  0  0
   -2.1549   19.8997   57.8258 C   0  0  0  0  0  0  0  0  0  0  0  0
   -1.6773   18.8956   57.3039 O   0  0  0  0  0  0  0  0  0  0  0  0
   -3.5570   19.9040   57.9457 N   0  0  0  0  0  0  0  0  0  0  0  0
   -4.1412   21.0948   58.4633 C   0  0  0  0  0  0  0  0  0  0  0  0
   -4.2725   18.7169   57.5303 C   0  0  1  0  0  0  0  0  0  0  0  0
   -5.1378   18.1905   58.6577 C   0  0  0  0  0  0  0  0  0  0  0  0
   -4.2978   17.8250   59.8651 C   0  0  0  0  0  0  0  0  0  0  0  0
   -3.2847   16.7727   59.5605 C   0  0  0  0  0  0  0  0  0  0  0  0
   -5.2043   17.3396   60.9720 C   0  0  0  0  0  0  0  0  0  0  0  0
   -5.1189   18.9367   56.3220 C   0  0  0  0  0  0  0  0  0  0  0  0
   -5.8549   19.9030   56.1288 O   0  0  0  0  0  0  0  0  0  0  0  0
   -5.0944   17.9704   55.2629 N   0  0  0  0  0  0  0  0  0  0  0  0
   -5.8500   17.9325   54.0650 C   0  0  1  0  0  0  0  0  0  0  0  0
   -5.2168   18.6760   52.9095 C   0  0  0  0  0  0  0  0  0  0  0  0
   -6.1355   18.5356   51.7179 C   0  0  0  0  0  0  0  0  0  0  0  0
   -3.8586   18.2128   52.5237 C   0  0  0  0  0  0  0  0  0  0  0  0
   -6.1312   16.5263   53.7147 C   0  0  0  0  0  0  0  0  0  0  0  0
   -6.3272   16.1947   52.5572 O   0  0  0  0  0  0  0  0  0  0  0  0
   -6.2251   15.4603   54.6509 N   0  0  0  0  0  0  0  0  0  0  0  0
   -6.5496   15.8983   55.9906 C   0  0  0  0  0  0  0  0  0  0  0  0
   -6.1494   14.0498   54.4078 C   0  0  1  0  0  0  0  0  0  0  0  0
   -7.0485   13.4734   53.4120 C   0  0  0  0  0  0  0  0  0  0  0  0
   -8.5223   13.6909   53.7952 C   0  0  0  0  0  0  0  0  0  0  0  0
   -9.4408   13.1120   52.7429 C   0  0  0  0  0  0  0  0  0  0  0  0
   -8.7979   13.0128   55.1462 C   0  0  0  0  0  0  0  0  0  0  0  0
   -4.7016   13.5880   54.3255 C   0  0  0  0  0  0  0  0  0  0  0  0
   -4.3479   12.4811   54.7722 O   0  0  0  0  0  0  0  0  0  0  0  0
   -3.6702   14.3645   53.7328 N   0  0  0  0  0  0  0  0  0  0  0  0
   -2.2946   14.0676   53.8556 C   0  0  1  0  0  0  0  0  0  0  0  0
   -2.1090   12.5761   53.4487 C   0  0  0  0  0  0  0  0  0  0  0  0
   -1.2717   14.7843   53.1622 C   0  0  0  0  0  0  0  0  0  0  0  0
   -0.0741   14.7003   53.6025 O   0  0  0  0  0  0  0  0  0  0  0  0
   -1.3631   15.6069   51.9978 N   0  0  0  0  0  0  0  0  0  0  0  0
   -0.1314   16.2851   51.5260 C   0  0  2  0  0  0  0  0  0  0  0  0
   -0.3757   17.5297   50.7827 C   0  0  0  0  0  0  0  0  0  0  0  0
    0.7588   15.2965   50.8476 C   0  0  0  0  0  0  0  0  0  0  0  0
    0.3034   14.1828   50.6055 O   0  0  0  0  0  0  0  0  0  0  0  0
    2.0886   15.5067   50.4586 N   0  0  0  0  0  0  0  0  0  0  0  0
    2.6548   16.7710   50.7512 C   0  0  0  0  0  0  0  0  0  0  0  0
    2.9607   14.5175   49.8033 C   0  0  1  0  0  0  0  0  0  0  0  0
    3.3180   14.6361   48.4493 C   0  0  0  0  0  0  0  0  0  0  0  0
    3.9958   15.6033   47.6299 C   0  0  0  0  0  0  0  0  0  0  0  0
    3.3635   17.0026   47.5380 C   0  0  0  0  0  0  0  0  0  0  0  0
    5.4541   15.7987   47.5618 C   0  0  0  0  0  0  0  0  0  0  0  0
    3.6714   13.9419   50.9415 C   0  0  0  0  0  0  0  0  0  0  0  0
    2.9234   13.7375   51.9742 O   0  0  0  0  0  0  0  0  0  0  0  0
    4.9699   13.5661   51.1927 N   0  0  0  0  0  0  0  0  0  0  0  0
    5.9934   13.8663   50.2625 C   0  0  0  0  0  0  0  0  0  0  0  0
    5.3677   12.8331   52.5094 C   0  0  1  0  0  0  0  0  0  0  0  0
    5.9090   11.5564   52.1429 C   0  0  0  0  0  0  0  0  0  0  0  0
    6.3530   10.5113   53.1159 C   0  0  0  0  0  0  0  0  0  0  0  0
    6.8313    9.3159   52.2641 C   0  0  0  0  0  0  0  0  0  0  0  0
    5.2304    9.9920   53.9821 C   0  0  0  0  0  0  0  0  0  0  0  0
    5.9619   13.8813   53.3284 C   0  0  0  0  0  0  0  0  0  0  0  0
    5.7768   15.0559   52.7904 O   0  0  0  0  0  0  0  0  0  0  0  0
    6.6614   14.0293   54.5007 N   0  0  0  0  0  0  0  0  0  0  0  0
    7.0554   12.9418   55.3016 C   0  0  0  0  0  0  0  0  0  0  0  0
    7.0334   15.4002   55.0683 C   0  0  1  0  0  0  0  0  0  0  0  0
    7.9126   16.1027   54.1319 C   0  0  0  0  0  0  0  0  0  0  0  0
    9.2115   15.2890   53.8843 C   0  0  0  0  0  0  0  0  0  0  0  0
    8.3944   17.4745   54.5055 C   0  0  0  0  0  0  0  0  0  0  0  0
    5.7884   15.9890   55.5392 C   0  0  0  0  0  0  0  0  0  0  0  0
    4.7364   15.5537   55.0505 O   0  0  0  0  0  0  0  0  0  0  0  0
    5.5413   17.0146   56.5064 N   0  0  0  0  0  0  0  0  0  0  0  0
    6.6953   17.5606   57.1316 C   0  0  0  0  0  0  0  0  0  0  0  0
  1  2  2  0
  2  3  1  0
  3  4  2  0
  4  5  1  0
  5  6  1  0
  6  7  1  6
  6  8  1  0
  8  9  1  1
  8 10  1  0
 10 11  1  0
 11 12  2  0
 11 13  1  0
 13 14  1  0
 14 15  1  6
 15 16  1  0
 14 17  1  0
 17 18  2  0
 17 19  1  0
 19 20  1  0
 19 21  1  0
 21 22  1  0
 22 23  2  0
 22 24  1  0
 24 25  1  0
 24 26  1  0
 26 27  1  1
 27 28  1  0
 28 29  1  0
 28 30  1  0
 26 31  1  0
 31 32  2  0
 31 33  1  0
 33 34  1  0
 34 35  1  6
 35 36  1  0
 35 37  1  0
 34 38  1  0
 38 39  2  0
 38 40  1  0
 40 41  1  0
 40 42  1  0
 42 43  1  6
 43 44  1  0
 44 45  1  0
 44 46  1  0
 42 47  1  0
 47 48  2  0
 47 49  1  0
 49 50  1  0
 50 51  1  6
 50 52  1  0
 52 53  2  0
 52 54  1  0
 54 55  1  0
 55 56  1  6
 55 57  1  0
 57 58  2  0
 57 59  1  0
 59 60  1  0
 59 61  1  0
 61 62  1  6
 62 63  1  0
 63 64  1  0
 63 65  1  0
 61 66  1  0
 66 67  2  0
 66 68  1  0
 68 69  1  0
 68 70  1  0
 70 71  1  6
 71 72  1  0
 72 73  1  0
 72 74  1  0
 70 75  1  0
 75 76  2  0
 75 77  1  0
 77 78  1  0
 77 79  1  0
 79 80  1  6
 80 81  1  0
 80 82  1  0
 79 83  1  0
 83 84  2  0
 83 85  1  0
 85 86  1  0
 10 85  1  1
M  END
>  <shape_align_shape_tanimoto>  (2) 
0.32484821384187867

>  <shape_align_color_tanimoto>  (2) 
0.067613634092786576

>  <metric>  (2) 
color

>  <metric_score>  (2) 
0.068

>  <template_pid>  (2) 
3ODI

>  <template_shape_score>  (2) 
0.325

>  <template_color_score>  (2) 
0.068

>  <template_combo_score>  (2) 
0.196

$$$$
3ODI_combo_pose
     RDKit          3D

 86 86  0  0  0  0  0  0  0  0999 V2000
    5.8561   11.5819   48.9552 C   0  0  0  0  0  0  0  0  0  0  0  0
    5.6854   12.8672   49.2663 C   0  0  0  0  0  0  0  0  0  0  0  0
    5.7984   13.3127   50.6727 C   0  0  0  0  0  0  0  0  0  0  0  0
    5.6355   14.5493   51.0070 C   0  0  0  0  0  0  0  0  0  0  0  0
    5.7180   15.1455   52.3541 C   0  0  0  0  0  0  0  0  0  0  0  0
    6.1154   14.1134   53.3634 C   0  0  1  0  0  0  0  0  0  0  0  0
    7.5189   13.6538   52.9698 C   0  0  0  0  0  0  0  0  0  0  0  0
    6.1292   14.6175   54.7989 C   0  0  1  0  0  0  0  0  0  0  0  0
    7.1167   15.6656   54.7291 O   0  0  0  0  0  0  0  0  0  0  0  0
    4.8570   15.2724   55.2091 C   0  0  1  0  0  0  0  0  0  0  0  0
    3.6408   14.5050   55.3558 C   0  0  0  0  0  0  0  0  0  0  0  0
    2.8650   14.9285   56.3095 O   0  0  0  0  0  0  0  0  0  0  0  0
    3.1135   13.3910   54.6943 N   0  0  0  0  0  0  0  0  0  0  0  0
    1.6850   13.0192   55.1960 C   0  0  1  0  0  0  0  0  0  0  0  0
    1.8080   12.3771   56.4777 C   0  0  0  0  0  0  0  0  0  0  0  0
    0.5422   11.8813   57.0852 C   0  0  0  0  0  0  0  0  0  0  0  0
    0.9564   14.2175   54.8699 C   0  0  0  0  0  0  0  0  0  0  0  0
    1.6354   14.9717   54.0218 O   0  0  0  0  0  0  0  0  0  0  0  0
   -0.2271   14.8661   55.1511 N   0  0  0  0  0  0  0  0  0  0  0  0
   -1.1106   14.4181   56.1413 C   0  0  0  0  0  0  0  0  0  0  0  0
   -0.5370   16.1024   54.4260 C   0  0  0  0  0  0  0  0  0  0  0  0
   -1.2778   15.8640   53.1767 C   0  0  0  0  0  0  0  0  0  0  0  0
   -1.6627   14.7591   52.8863 O   0  0  0  0  0  0  0  0  0  0  0  0
   -1.5918   16.8865   52.2169 N   0  0  0  0  0  0  0  0  0  0  0  0
   -1.1169   18.1913   52.6435 C   0  0  0  0  0  0  0  0  0  0  0  0
   -2.2891   16.6887   50.9860 C   0  0  1  0  0  0  0  0  0  0  0  0
   -1.6822   15.9777   49.8816 C   0  0  0  0  0  0  0  0  0  0  0  0
   -1.2208   14.5805   49.9364 C   0  0  0  0  0  0  0  0  0  0  0  0
   -0.6331   14.2870   48.5116 C   0  0  0  0  0  0  0  0  0  0  0  0
   -2.3195   13.5442   50.0341 C   0  0  0  0  0  0  0  0  0  0  0  0
   -3.7551   16.6825   51.1833 C   0  0  0  0  0  0  0  0  0  0  0  0
   -4.2364   17.2117   52.1935 O   0  0  0  0  0  0  0  0  0  0  0  0
   -4.6944   16.0985   50.2918 N   0  0  0  0  0  0  0  0  0  0  0  0
   -6.1642   16.3216   50.4419 C   0  0  1  0  0  0  0  0  0  0  0  0
   -6.6233   16.2295   49.0334 C   0  0  0  0  0  0  0  0  0  0  0  0
   -8.0599   16.3931   48.7183 C   0  0  0  0  0  0  0  0  0  0  0  0
   -5.9113   17.3945   48.3000 C   0  0  0  0  0  0  0  0  0  0  0  0
   -6.6592   15.3286   51.3952 C   0  0  0  0  0  0  0  0  0  0  0  0
   -5.9493   14.3927   51.7374 O   0  0  0  0  0  0  0  0  0  0  0  0
   -7.9369   15.3205   52.0181 N   0  0  0  0  0  0  0  0  0  0  0  0
   -8.7858   16.4273   51.7853 C   0  0  0  0  0  0  0  0  0  0  0  0
   -8.3630   14.2249   52.9581 C   0  0  1  0  0  0  0  0  0  0  0  0
   -8.4463   12.9599   52.2469 C   0  0  0  0  0  0  0  0  0  0  0  0
   -8.8429   11.7369   52.9789 C   0  0  0  0  0  0  0  0  0  0  0  0
   -7.9988   11.1976   54.0657 C   0  0  0  0  0  0  0  0  0  0  0  0
   -9.0514   10.5570   51.9882 C   0  0  0  0  0  0  0  0  0  0  0  0
   -7.6310   14.3791   54.2154 C   0  0  0  0  0  0  0  0  0  0  0  0
   -7.6867   13.6921   55.2398 O   0  0  0  0  0  0  0  0  0  0  0  0
   -6.6858   15.4814   54.3687 N   0  0  0  0  0  0  0  0  0  0  0  0
   -5.8434   15.6269   55.5306 C   0  0  1  0  0  0  0  0  0  0  0  0
   -4.4818   14.9634   55.2147 C   0  0  0  0  0  0  0  0  0  0  0  0
   -5.6300   17.0214   55.9638 C   0  0  0  0  0  0  0  0  0  0  0  0
   -6.2480   18.0016   55.5407 O   0  0  0  0  0  0  0  0  0  0  0  0
   -4.6143   17.3505   56.9680 N   0  0  0  0  0  0  0  0  0  0  0  0
   -4.4702   18.7255   57.3385 C   0  0  2  0  0  0  0  0  0  0  0  0
   -4.0023   19.4450   56.0243 C   0  0  0  0  0  0  0  0  0  0  0  0
   -3.5361   19.0643   58.3965 C   0  0  0  0  0  0  0  0  0  0  0  0
   -3.6946   20.1901   58.9444 O   0  0  0  0  0  0  0  0  0  0  0  0
   -2.4446   18.3909   58.9550 N   0  0  0  0  0  0  0  0  0  0  0  0
   -1.9687   17.2207   58.3117 C   0  0  0  0  0  0  0  0  0  0  0  0
   -1.6528   18.8632   60.1184 C   0  0  1  0  0  0  0  0  0  0  0  0
   -1.9872   18.0935   61.3398 C   0  0  0  0  0  0  0  0  0  0  0  0
   -1.3309   18.4574   62.6125 C   0  0  0  0  0  0  0  0  0  0  0  0
   -1.8753   17.4806   63.6722 C   0  0  0  0  0  0  0  0  0  0  0  0
   -1.7129   19.8437   63.1115 C   0  0  0  0  0  0  0  0  0  0  0  0
   -0.3134   19.2237   59.7709 C   0  0  0  0  0  0  0  0  0  0  0  0
   -0.1763   20.3261   59.1055 O   0  0  0  0  0  0  0  0  0  0  0  0
    0.9665   18.6701   59.9568 N   0  0  0  0  0  0  0  0  0  0  0  0
    1.1113   17.3527   60.4398 C   0  0  0  0  0  0  0  0  0  0  0  0
    2.2063   19.3768   59.5673 C   0  0  1  0  0  0  0  0  0  0  0  0
    2.8157   19.8069   60.9269 C   0  0  0  0  0  0  0  0  0  0  0  0
    1.9703   20.7203   61.7205 C   0  0  0  0  0  0  0  0  0  0  0  0
    1.6451   22.0438   61.0948 C   0  0  0  0  0  0  0  0  0  0  0  0
    2.5521   20.9822   63.0950 C   0  0  0  0  0  0  0  0  0  0  0  0
    3.2333   18.5198   58.9652 C   0  0  0  0  0  0  0  0  0  0  0  0
    3.3172   17.2959   59.0101 O   0  0  0  0  0  0  0  0  0  0  0  0
    4.3411   19.0708   58.1860 N   0  0  0  0  0  0  0  0  0  0  0  0
    4.1754   20.4508   57.8645 C   0  0  0  0  0  0  0  0  0  0  0  0
    5.4542   18.2503   57.7465 C   0  0  1  0  0  0  0  0  0  0  0  0
    6.3858   17.8484   58.8099 C   0  0  0  0  0  0  0  0  0  0  0  0
    7.5309   17.0509   58.2471 C   0  0  0  0  0  0  0  0  0  0  0  0
    7.0360   19.0616   59.4875 C   0  0  0  0  0  0  0  0  0  0  0  0
    5.1263   17.3358   56.6982 C   0  0  0  0  0  0  0  0  0  0  0  0
    4.6764   17.8715   55.6057 O   0  0  0  0  0  0  0  0  0  0  0  0
    5.1504   15.9547   56.5244 N   0  0  0  0  0  0  0  0  0  0  0  0
    5.3829   15.0644   57.5941 C   0  0  0  0  0  0  0  0  0  0  0  0
  1  2  2  0
  2  3  1  0
  3  4  2  0
  4  5  1  0
  5  6  1  0
  6  7  1  6
  6  8  1  0
  8  9  1  6
  8 10  1  0
 10 11  1  0
 11 12  2  0
 11 13  1  0
 13 14  1  0
 14 15  1  1
 15 16  1  0
 14 17  1  0
 17 18  2  0
 17 19  1  0
 19 20  1  0
 19 21  1  0
 21 22  1  0
 22 23  2  0
 22 24  1  0
 24 25  1  0
 24 26  1  0
 26 27  1  1
 27 28  1  0
 28 29  1  0
 28 30  1  0
 26 31  1  0
 31 32  2  0
 31 33  1  0
 33 34  1  0
 34 35  1  6
 35 36  1  0
 35 37  1  0
 34 38  1  0
 38 39  2  0
 38 40  1  0
 40 41  1  0
 40 42  1  0
 42 43  1  6
 43 44  1  0
 44 45  1  0
 44 46  1  0
 42 47  1  0
 47 48  2  0
 47 49  1  0
 49 50  1  0
 50 51  1  6
 50 52  1  0
 52 53  2  0
 52 54  1  0
 54 55  1  0
 55 56  1  6
 55 57  1  0
 57 58  2  0
 57 59  1  0
 59 60  1  0
 59 61  1  0
 61 62  1  1
 62 63  1  0
 63 64  1  0
 63 65  1  0
 61 66  1  0
 66 67  2  0
 66 68  1  0
 68 69  1  0
 68 70  1  0
 70 71  1  1
 71 72  1  0
 72 73  1  0
 72 74  1  0
 70 75  1  0
 75 76  2  0
 75 77  1  0
 77 78  1  0
 77 79  1  0
 79 80  1  1
 80 81  1  0
 80 82  1  0
 79 83  1  0
 83 84  2  0
 83 85  1  0
 85 86  1  0
 10 85  1  1
M  END
>  <shape_align_shape_tanimoto>  (3) 
0.37607768779957224

>  <shape_align_color_tanimoto>  (3) 
0.045973062908604541

>  <metric>  (3) 
combo

>  <metric_score>  (3) 
0.211

>  <template_pid>  (3) 
3ODI

>  <template_shape_score>  (3) 
0.376

>  <template_color_score>  (3) 
0.046

>  <template_combo_score>  (3) 
0.211

$$$$
