4B6P_shape_pose
     RDKit          3D

 25 26  0  0  0  0  0  0  0  0999 V2000
   36.5735   28.5265   10.8949 O   0  0  0  0  0  0  0  0  0  0  0  0
   36.6771   28.3549   12.0831 C   0  0  0  0  0  0  0  0  0  0  0  0
   35.5263   27.9013   12.9683 C   0  0  1  0  0  0  0  0  0  0  0  0
   35.5380   26.4814   12.8526 O   0  0  0  0  0  0  0  0  0  0  0  0
   35.8717   28.2150   14.3918 C   0  0  2  0  0  0  0  0  0  0  0  0
   34.6581   28.2831   15.0896 O   0  0  0  0  0  0  0  0  0  0  0  0
   36.5767   29.5287   14.6075 C   0  0  0  0  0  0  0  0  0  0  0  0
   37.6552   29.8455   13.6259 C   0  0  2  0  0  0  0  0  0  0  0  0
   38.7588   30.4420   14.1665 O   0  0  0  0  0  0  0  0  0  0  0  0
   37.0592   30.8953   12.7008 C   0  0  0  0  0  0  0  0  0  0  0  0
   37.6818   31.9631   12.4585 O   0  0  0  0  0  0  0  0  0  0  0  0
   35.7941   30.6626   12.1113 O   0  0  0  0  0  0  0  0  0  0  0  0
   37.9638   28.5633   12.8532 C   0  0  2  0  0  0  0  0  0  0  0  0
   39.1311   28.6864   11.9614 C   0  0  0  0  0  0  0  0  0  0  0  0
   40.4584   28.8604   12.5775 C   0  0  0  0  0  0  0  0  0  0  0  0
   41.4627   29.4626   11.8101 C   0  0  0  0  0  0  0  0  0  0  0  0
   41.1739   29.8505   10.5327 F   0  0  0  0  0  0  0  0  0  0  0  0
   42.7326   29.6559   12.3204 C   0  0  0  0  0  0  0  0  0  0  0  0
   43.6584   30.2456   11.5014 F   0  0  0  0  0  0  0  0  0  0  0  0
   43.0388   29.2600   13.6053 C   0  0  0  0  0  0  0  0  0  0  0  0
   44.2976   29.4872   14.0599 F   0  0  0  0  0  0  0  0  0  0  0  0
   42.0593   28.6689   14.3633 C   0  0  0  0  0  0  0  0  0  0  0  0
   42.3429   28.2810   15.6517 F   0  0  0  0  0  0  0  0  0  0  0  0
   40.7760   28.4685   13.8513 C   0  0  0  0  0  0  0  0  0  0  0  0
   39.9123   27.8378   14.6902 F   0  0  0  0  0  0  0  0  0  0  0  0
  1  2  2  0
  2  3  1  0
  3  4  1  1
  3  5  1  0
  5  6  1  1
  5  7  1  0
  7  8  1  0
  8  9  1  1
  8 10  1  0
 10 11  2  0
 10 12  1  0
  8 13  1  0
 13 14  1  6
 14 15  1  0
 15 16  2  0
 16 17  1  0
 16 18  1  0
 18 19  1  0
 18 20  2  0
 20 21  1  0
 20 22  1  0
 22 23  1  0
 22 24  2  0
 24 25  1  0
 13  2  1  0
 24 15  1  0
M  CHG  1  12  -1
M  END
>  <shape_align_shape_tanimoto>  (1) 
0.61275081510501528

>  <shape_align_color_tanimoto>  (1) 
0.039967082537691864

>  <metric>  (1) 
shape

>  <metric_score>  (1) 
0.613

>  <template_pid>  (1) 
4B6P

>  <template_shape_score>  (1) 
0.613

>  <template_color_score>  (1) 
0.040

>  <template_combo_score>  (1) 
0.326

$$$$
4B6P_color_pose
     RDKit          3D

 25 26  0  0  0  0  0  0  0  0999 V2000
   37.2382   31.0237   12.6486 O   0  0  0  0  0  0  0  0  0  0  0  0
   37.3147   29.8086   12.6596 C   0  0  0  0  0  0  0  0  0  0  0  0
   36.1528   28.9018   12.4739 C   0  0  1  0  0  0  0  0  0  0  0  0
   36.3879   28.1411   11.3135 O   0  0  0  0  0  0  0  0  0  0  0  0
   36.0456   27.9959   13.6725 C   0  0  2  0  0  0  0  0  0  0  0  0
   35.4686   28.7096   14.7176 O   0  0  0  0  0  0  0  0  0  0  0  0
   37.3588   27.3842   13.9605 C   0  0  0  0  0  0  0  0  0  0  0  0
   38.5242   28.3757   14.1312 C   0  0  2  0  0  0  0  0  0  0  0  0
   39.6016   27.5073   14.4336 O   0  0  0  0  0  0  0  0  0  0  0  0
   38.2615   29.1327   15.3489 C   0  0  0  0  0  0  0  0  0  0  0  0
   38.8922   28.7725   16.4060 O   0  0  0  0  0  0  0  0  0  0  0  0
   37.4104   30.1977   15.4943 O   0  0  0  0  0  0  0  0  0  0  0  0
   38.6473   29.1061   12.8710 C   0  0  2  0  0  0  0  0  0  0  0  0
   39.7267   30.0443   12.5959 C   0  0  0  0  0  0  0  0  0  0  0  0
   41.1153   29.6495   12.7076 C   0  0  0  0  0  0  0  0  0  0  0  0
   41.8652   29.5667   13.8594 C   0  0  0  0  0  0  0  0  0  0  0  0
   41.3112   29.9237   15.0378 F   0  0  0  0  0  0  0  0  0  0  0  0
   43.1809   29.1550   13.8871 C   0  0  0  0  0  0  0  0  0  0  0  0
   43.8657   29.0954   15.0661 F   0  0  0  0  0  0  0  0  0  0  0  0
   43.8204   28.7980   12.7196 C   0  0  0  0  0  0  0  0  0  0  0  0
   45.1119   28.3926   12.7374 F   0  0  0  0  0  0  0  0  0  0  0  0
   43.1018   28.8688   11.5454 C   0  0  0  0  0  0  0  0  0  0  0  0
   43.7317   28.5188   10.4043 F   0  0  0  0  0  0  0  0  0  0  0  0
   41.7872   29.2816   11.5321 C   0  0  0  0  0  0  0  0  0  0  0  0
   41.1377   29.3283   10.3369 F   0  0  0  0  0  0  0  0  0  0  0  0
  1  2  2  0
  2  3  1  0
  3  4  1  6
  3  5  1  0
  5  6  1  1
  5  7  1  0
  7  8  1  0
  8  9  1  1
  8 10  1  0
 10 11  2  0
 10 12  1  0
  8 13  1  0
 13 14  1  1
 14 15  1  0
 15 16  2  0
 16 17  1  0
 16 18  1  0
 18 19  1  0
 18 20  2  0
 20 21  1  0
 20 22  1  0
 22 23  1  0
 22 24  2  0
 24 25  1  0
 13  2  1  0
 24 15  1  0
M  CHG  1  12  -1
M  END
>  <shape_align_shape_tanimoto>  (2) 
0.60515004308047138

>  <shape_align_color_tanimoto>  (2) 
0.16481554071521778

>  <metric>  (2) 
color

>  <metric_score>  (2) 
0.165

>  <template_pid>  (2) 
4B6P

>  <template_shape_score>  (2) 
0.605

>  <template_color_score>  (2) 
0.165

>  <template_combo_score>  (2) 
0.385

$$$$
4B6P_combo_pose
     RDKit          3D

 25 26  0  0  0  0  0  0  0  0999 V2000
   37.2382   31.0237   12.6486 O   0  0  0  0  0  0  0  0  0  0  0  0
   37.3147   29.8086   12.6596 C   0  0  0  0  0  0  0  0  0  0  0  0
   36.1528   28.9018   12.4739 C   0  0  1  0  0  0  0  0  0  0  0  0
   36.3879   28.1411   11.3135 O   0  0  0  0  0  0  0  0  0  0  0  0
   36.0456   27.9959   13.6725 C   0  0  2  0  0  0  0  0  0  0  0  0
   35.4686   28.7096   14.7176 O   0  0  0  0  0  0  0  0  0  0  0  0
   37.3588   27.3842   13.9605 C   0  0  0  0  0  0  0  0  0  0  0  0
   38.5242   28.3757   14.1312 C   0  0  2  0  0  0  0  0  0  0  0  0
   39.6016   27.5073   14.4336 O   0  0  0  0  0  0  0  0  0  0  0  0
   38.2615   29.1327   15.3489 C   0  0  0  0  0  0  0  0  0  0  0  0
   38.8922   28.7725   16.4060 O   0  0  0  0  0  0  0  0  0  0  0  0
   37.4104   30.1977   15.4943 O   0  0  0  0  0  0  0  0  0  0  0  0
   38.6473   29.1061   12.8710 C   0  0  2  0  0  0  0  0  0  0  0  0
   39.7267   30.0443   12.5959 C   0  0  0  0  0  0  0  0  0  0  0  0
   41.1153   29.6495   12.7076 C   0  0  0  0  0  0  0  0  0  0  0  0
   41.8652   29.5667   13.8594 C   0  0  0  0  0  0  0  0  0  0  0  0
   41.3112   29.9237   15.0378 F   0  0  0  0  0  0  0  0  0  0  0  0
   43.1809   29.1550   13.8871 C   0  0  0  0  0  0  0  0  0  0  0  0
   43.8657   29.0954   15.0661 F   0  0  0  0  0  0  0  0  0  0  0  0
   43.8204   28.7980   12.7196 C   0  0  0  0  0  0  0  0  0  0  0  0
   45.1119   28.3926   12.7374 F   0  0  0  0  0  0  0  0  0  0  0  0
   43.1018   28.8688   11.5454 C   0  0  0  0  0  0  0  0  0  0  0  0
   43.7317   28.5188   10.4043 F   0  0  0  0  0  0  0  0  0  0  0  0
   41.7872   29.2816   11.5321 C   0  0  0  0  0  0  0  0  0  0  0  0
   41.1377   29.3283   10.3369 F   0  0  0  0  0  0  0  0  0  0  0  0
  1  2  2  0
  2  3  1  0
  3  4  1  6
  3  5  1  0
  5  6  1  1
  5  7  1  0
  7  8  1  0
  8  9  1  1
  8 10  1  0
 10 11  2  0
 10 12  1  0
  8 13  1  0
 13 14  1  1
 14 15  1  0
 15 16  2  0
 16 17  1  0
 16 18  1  0
 18 19  1  0
 18 20  2  0
 20 21  1  0
 20 22  1  0
 22 23  1  0
 22 24  2  0
 24 25  1  0
 13  2  1  0
 24 15  1  0
M  CHG  1  12  -1
M  END
>  <shape_align_shape_tanimoto>  (3) 
0.60515004308047138

>  <shape_align_color_tanimoto>  (3) 
0.16481554071521778

>  <metric>  (3) 
combo

>  <metric_score>  (3) 
0.385

>  <template_pid>  (3) 
4B6P

>  <template_shape_score>  (3) 
0.605

>  <template_color_score>  (3) 
0.165

>  <template_combo_score>  (3) 
0.385

$$$$
