4RWW_shape_pose
     RDKit          3D

 44 50  0  0  0  0  0  0  0  0999 V2000
   17.7575    9.7552    5.1237 N   0  0  0  0  0  0  0  0  0  0  0  0
   17.4118    9.1738    3.8718 C   0  0  0  0  0  0  0  0  0  0  0  0
   16.5187    8.1503    3.7811 N   0  0  0  0  0  0  0  0  0  0  0  0
   16.1754    7.5827    2.6095 C   0  0  0  0  0  0  0  0  0  0  0  0
   16.7218    8.0234    1.4546 N   0  0  0  0  0  0  0  0  0  0  0  0
   17.6173    9.0357    1.4561 C   0  0  0  0  0  0  0  0  0  0  0  0
   17.9502    9.5983    2.6711 C   0  0  0  0  0  0  0  0  0  0  0  0
   18.8421   10.5704    2.4437 N   0  0  0  0  0  0  0  0  0  0  0  0
   19.0766   10.6290    1.1017 C   0  0  0  0  0  0  0  0  0  0  0  0
   18.3268    9.6935    0.5238 N   0  0  0  0  0  0  0  0  0  0  0  0
   18.2820    9.4226   -0.8966 C   0  0  2  0  0  0  0  0  0  0  0  0
   19.5123    8.9925   -1.3837 O   0  0  0  0  0  0  0  0  0  0  0  0
   19.4036    9.3681   -2.7068 C   0  0  2  0  0  0  0  0  0  0  0  0
   20.4604    9.0324   -3.6493 C   0  0  0  0  0  0  0  0  0  0  0  0
   20.4714   10.0582   -4.6186 O   0  0  0  0  0  0  0  0  0  0  0  0
   20.9259    9.5265   -6.1382 P   0  0  1  0  0  5  0  0  0  0  0  0
   21.4360   10.7358   -6.9121 O   0  0  0  0  0  0  0  0  0  0  0  0
   22.1892    8.4090   -6.1139 O   0  0  0  0  0  0  0  0  0  0  0  0
   19.6224    8.8773   -6.9989 O   0  0  0  0  0  0  0  0  0  0  0  0
   19.0466    9.7303   -7.8971 C   0  0  1  0  0  0  0  0  0  0  0  0
   18.5000    8.8664   -9.0446 C   0  0  1  0  0  0  0  0  0  0  0  0
   18.1079    7.6136   -8.5489 O   0  0  0  0  0  0  0  0  0  0  0  0
   17.2363    9.6151   -9.4117 C   0  0  2  0  0  0  0  0  0  0  0  0
   17.1509    9.8379  -10.8367 N   0  0  0  0  0  0  0  0  0  0  0  0
   18.1240    9.9332  -11.7602 C   0  0  0  0  0  0  0  0  0  0  0  0
   17.5914   10.1462  -12.9868 N   0  0  0  0  0  0  0  0  0  0  0  0
   16.2759   10.1862  -12.8416 C   0  0  0  0  0  0  0  0  0  0  0  0
   15.2545   10.3775  -13.7757 C   0  0  0  0  0  0  0  0  0  0  0  0
   15.5636   10.5741  -15.1643 N   0  0  0  0  0  0  0  0  0  0  0  0
   13.9923   10.3676  -13.3226 N   0  0  0  0  0  0  0  0  0  0  0  0
   13.6899   10.1823  -12.0190 C   0  0  0  0  0  0  0  0  0  0  0  0
   14.6845    9.9999  -11.1337 N   0  0  0  0  0  0  0  0  0  0  0  0
   15.9954    9.9946  -11.5031 C   0  0  0  0  0  0  0  0  0  0  0  0
   17.2378   10.7830   -8.6718 O   0  0  0  0  0  0  0  0  0  0  0  0
   17.7084   10.3174   -7.4196 C   0  0  2  0  0  0  0  0  0  0  0  0
   17.9084   11.4426   -6.4646 C   0  0  0  0  0  0  0  0  0  0  0  0
   17.0518   11.3184   -5.3466 O   0  0  0  0  0  0  0  0  0  0  0  0
   17.7865   12.3170   -4.1547 P   0  0  2  0  0  5  0  0  0  0  0  0
   16.8308   12.7838   -3.1207 O   0  0  0  0  0  0  0  0  0  0  0  0
   18.2730   13.7108   -5.0406 O   0  0  0  0  0  0  0  0  0  0  0  0
   19.1153   11.4927   -3.6439 O   0  0  0  0  0  0  0  0  0  0  0  0
   19.1646   10.8698   -2.4770 C   0  0  1  0  0  0  0  0  0  0  0  0
   17.8735   10.6766   -1.6834 C   0  0  1  0  0  0  0  0  0  0  0  0
   16.8676   10.2776   -2.5943 O   0  0  0  0  0  0  0  0  0  0  0  0
  1  2  1  0
  2  3  2  0
  3  4  1  0
  4  5  2  0
  5  6  1  0
  6  7  2  0
  7  8  1  0
  8  9  2  0
  9 10  1  0
 11 10  1  1
 11 12  1  0
 12 13  1  0
 13 14  1  6
 14 15  1  0
 15 16  1  0
 16 17  2  0
 16 18  1  1
 16 19  1  0
 20 19  1  1
 20 21  1  0
 21 22  1  1
 21 23  1  0
 23 24  1  6
 24 25  1  0
 25 26  2  0
 26 27  1  0
 27 28  2  0
 28 29  1  0
 28 30  1  0
 30 31  2  0
 31 32  1  0
 32 33  2  0
 23 34  1  0
 34 35  1  0
 35 36  1  1
 36 37  1  0
 37 38  1  0
 38 39  2  0
 38 40  1  6
 38 41  1  0
 42 41  1  6
 42 43  1  0
 43 44  1  6
  7  2  1  0
 43 11  1  0
 10  6  1  0
 42 13  1  0
 35 20  1  0
 33 24  1  0
 33 27  1  0
M  END
>  <shape_align_shape_tanimoto>  (1) 
0.41097592991721432

>  <shape_align_color_tanimoto>  (1) 
0.034974862974400757

>  <metric>  (1) 
shape

>  <metric_score>  (1) 
0.411

>  <template_pid>  (1) 
4RWW

>  <template_shape_score>  (1) 
0.411

>  <template_color_score>  (1) 
0.035

>  <template_combo_score>  (1) 
0.223

$$$$
4RWW_color_pose
     RDKit          3D

 44 50  0  0  0  0  0  0  0  0999 V2000
   17.6521    9.7428    6.9254 N   0  0  0  0  0  0  0  0  0  0  0  0
   17.7883    9.1257    5.6533 C   0  0  0  0  0  0  0  0  0  0  0  0
   18.1271    7.8331    5.4883 N   0  0  0  0  0  0  0  0  0  0  0  0
   18.2500    7.2694    4.2735 C   0  0  0  0  0  0  0  0  0  0  0  0
   18.0276    8.0193    3.1825 N   0  0  0  0  0  0  0  0  0  0  0  0
   17.6824    9.3274    3.2451 C   0  0  0  0  0  0  0  0  0  0  0  0
   17.5674    9.8656    4.5100 C   0  0  0  0  0  0  0  0  0  0  0  0
   17.2227   11.1518    4.3253 N   0  0  0  0  0  0  0  0  0  0  0  0
   17.1287   11.3987    3.0111 C   0  0  0  0  0  0  0  0  0  0  0  0
   17.4147   10.2629    2.3341 N   0  0  0  0  0  0  0  0  0  0  0  0
   17.4419   10.0435    0.9018 C   0  0  2  0  0  0  0  0  0  0  0  0
   18.7414    9.7958    0.4543 O   0  0  0  0  0  0  0  0  0  0  0  0
   18.5223    9.7382   -0.9448 C   0  0  2  0  0  0  0  0  0  0  0  0
   19.8798    9.7894   -1.5963 C   0  0  0  0  0  0  0  0  0  0  0  0
   20.2536    8.6476   -2.2555 O   0  0  0  0  0  0  0  0  0  0  0  0
   21.7558    8.7373   -2.9911 P   0  0  1  0  0  5  0  0  0  0  0  0
   22.4904   10.0203   -2.6421 O   0  0  0  0  0  0  0  0  0  0  0  0
   22.6463    7.3840   -2.4401 O   0  0  0  0  0  0  0  0  0  0  0  0
   21.7114    8.6253   -4.6567 O   0  0  0  0  0  0  0  0  0  0  0  0
   20.7965    9.4519   -5.2739 C   0  0  1  0  0  0  0  0  0  0  0  0
   21.3563   10.1115   -6.5161 C   0  0  1  0  0  0  0  0  0  0  0  0
   22.3874    9.3619   -7.0511 O   0  0  0  0  0  0  0  0  0  0  0  0
   20.1799   10.1007   -7.4651 C   0  0  2  0  0  0  0  0  0  0  0  0
   19.4858   11.3980   -7.4849 N   0  0  0  0  0  0  0  0  0  0  0  0
   20.0078   12.6192   -7.2824 C   0  0  0  0  0  0  0  0  0  0  0  0
   18.9848   13.4988   -7.3990 N   0  0  0  0  0  0  0  0  0  0  0  0
   17.8417   12.8471   -7.6691 C   0  0  0  0  0  0  0  0  0  0  0  0
   16.5228   13.1863   -7.8872 C   0  0  0  0  0  0  0  0  0  0  0  0
   16.1504   14.5678   -7.8392 N   0  0  0  0  0  0  0  0  0  0  0  0
   15.6138   12.2193   -8.1403 N   0  0  0  0  0  0  0  0  0  0  0  0
   15.9212   10.9116   -8.1945 C   0  0  0  0  0  0  0  0  0  0  0  0
   17.2101   10.5858   -7.9810 N   0  0  0  0  0  0  0  0  0  0  0  0
   18.1556   11.4885   -7.7265 C   0  0  0  0  0  0  0  0  0  0  0  0
   19.3109    9.1330   -7.0404 O   0  0  0  0  0  0  0  0  0  0  0  0
   19.7129    8.5904   -5.8545 C   0  0  2  0  0  0  0  0  0  0  0  0
   18.4729    8.5571   -4.9548 C   0  0  0  0  0  0  0  0  0  0  0  0
   18.3313    9.7966   -4.3882 O   0  0  0  0  0  0  0  0  0  0  0  0
   16.9549    9.9269   -3.4175 P   0  0  2  0  0  5  0  0  0  0  0  0
   16.5875    8.5540   -2.9280 O   0  0  0  0  0  0  0  0  0  0  0  0
   15.6985   10.3509   -4.5111 O   0  0  0  0  0  0  0  0  0  0  0  0
   17.0026   11.1098   -2.2781 O   0  0  0  0  0  0  0  0  0  0  0  0
   17.7924   10.9982   -1.1976 C   0  0  1  0  0  0  0  0  0  0  0  0
   17.1101   11.2774    0.1239 C   0  0  1  0  0  0  0  0  0  0  0  0
   15.7482   11.5014   -0.0233 O   0  0  0  0  0  0  0  0  0  0  0  0
  1  2  1  0
  2  3  2  0
  3  4  1  0
  4  5  2  0
  5  6  1  0
  6  7  2  0
  7  8  1  0
  8  9  2  0
  9 10  1  0
 11 10  1  1
 11 12  1  0
 12 13  1  0
 13 14  1  6
 14 15  1  0
 15 16  1  0
 16 17  2  0
 16 18  1  1
 16 19  1  0
 20 19  1  6
 20 21  1  0
 21 22  1  6
 21 23  1  0
 23 24  1  1
 24 25  1  0
 25 26  2  0
 26 27  1  0
 27 28  2  0
 28 29  1  0
 28 30  1  0
 30 31  2  0
 31 32  1  0
 32 33  2  0
 23 34  1  0
 34 35  1  0
 35 36  1  1
 36 37  1  0
 37 38  1  0
 38 39  2  0
 38 40  1  6
 38 41  1  0
 42 41  1  6
 42 43  1  0
 43 44  1  6
  7  2  1  0
 43 11  1  0
 10  6  1  0
 42 13  1  0
 35 20  1  0
 33 24  1  0
 33 27  1  0
M  END
>  <shape_align_shape_tanimoto>  (2) 
0.32016561968605833

>  <shape_align_color_tanimoto>  (2) 
0.064853563680850199

>  <metric>  (2) 
color

>  <metric_score>  (2) 
0.065

>  <template_pid>  (2) 
4RWW

>  <template_shape_score>  (2) 
0.320

>  <template_color_score>  (2) 
0.065

>  <template_combo_score>  (2) 
0.193

$$$$
4RWW_combo_pose
     RDKit          3D

 44 50  0  0  0  0  0  0  0  0999 V2000
   17.9763    8.6461    6.6437 N   0  0  0  0  0  0  0  0  0  0  0  0
   17.4297    8.7163    5.3326 C   0  0  0  0  0  0  0  0  0  0  0  0
   16.0959    8.4946    5.1775 N   0  0  0  0  0  0  0  0  0  0  0  0
   15.5536    8.5572    3.9304 C   0  0  0  0  0  0  0  0  0  0  0  0
   16.3253    8.8360    2.8539 N   0  0  0  0  0  0  0  0  0  0  0  0
   17.6575    9.0575    3.0080 C   0  0  0  0  0  0  0  0  0  0  0  0
   18.2520    9.0035    4.2619 C   0  0  0  0  0  0  0  0  0  0  0  0
   19.5741    9.2632    4.1078 N   0  0  0  0  0  0  0  0  0  0  0  0
   19.7978    9.4729    2.7979 C   0  0  0  0  0  0  0  0  0  0  0  0
   18.6391    9.3510    2.1124 N   0  0  0  0  0  0  0  0  0  0  0  0
   18.4045    9.4887    0.7146 C   0  0  2  0  0  0  0  0  0  0  0  0
   19.4862    9.2317   -0.1058 O   0  0  0  0  0  0  0  0  0  0  0  0
   18.9440    9.5294   -1.3698 C   0  0  2  0  0  0  0  0  0  0  0  0
   20.0476    9.6408   -2.4008 C   0  0  0  0  0  0  0  0  0  0  0  0
   19.9519   10.7994   -3.1300 O   0  0  0  0  0  0  0  0  0  0  0  0
   21.1789   10.8717   -4.2832 P   0  0  1  0  0  5  0  0  0  0  0  0
   21.6061   12.3181   -4.3932 O   0  0  0  0  0  0  0  0  0  0  0  0
   22.5406    9.9823   -3.8187 O   0  0  0  0  0  0  0  0  0  0  0  0
   20.7099   10.3137   -5.7958 O   0  0  0  0  0  0  0  0  0  0  0  0
   19.4515   10.7023   -6.1751 C   0  0  1  0  0  0  0  0  0  0  0  0
   19.4275   10.9691   -7.6429 C   0  0  1  0  0  0  0  0  0  0  0  0
   20.5040   10.3135   -8.2849 O   0  0  0  0  0  0  0  0  0  0  0  0
   18.1634   10.3082   -8.1155 C   0  0  2  0  0  0  0  0  0  0  0  0
   17.1217   11.2467   -8.4881 N   0  0  0  0  0  0  0  0  0  0  0  0
   16.1035   10.9545   -9.3209 C   0  0  0  0  0  0  0  0  0  0  0  0
   15.3112   12.0053   -9.4727 N   0  0  0  0  0  0  0  0  0  0  0  0
   15.8009   13.0123   -8.7359 C   0  0  0  0  0  0  0  0  0  0  0  0
   15.3644   14.3052   -8.5433 C   0  0  0  0  0  0  0  0  0  0  0  0
   14.1881   14.7653   -9.1962 N   0  0  0  0  0  0  0  0  0  0  0  0
   16.0999   15.0843   -7.7216 N   0  0  0  0  0  0  0  0  0  0  0  0
   17.2149   14.5863   -7.1269 C   0  0  0  0  0  0  0  0  0  0  0  0
   17.6301   13.3219   -7.3235 N   0  0  0  0  0  0  0  0  0  0  0  0
   16.9379   12.5230   -8.1224 C   0  0  0  0  0  0  0  0  0  0  0  0
   17.6814    9.4860   -7.1220 O   0  0  0  0  0  0  0  0  0  0  0  0
   18.3949    9.6498   -5.9799 C   0  0  2  0  0  0  0  0  0  0  0  0
   17.4497   10.0574   -4.8676 C   0  0  0  0  0  0  0  0  0  0  0  0
   17.4427    9.1174   -3.8116 O   0  0  0  0  0  0  0  0  0  0  0  0
   16.4236    9.8252   -2.6317 P   0  0  2  0  0  5  0  0  0  0  0  0
   15.8709    8.7727   -1.7316 O   0  0  0  0  0  0  0  0  0  0  0  0
   15.1060   10.4622   -3.4984 O   0  0  0  0  0  0  0  0  0  0  0  0
   17.1620   11.1095   -1.8729 O   0  0  0  0  0  0  0  0  0  0  0  0
   18.2982   10.8525   -1.1574 C   0  0  1  0  0  0  0  0  0  0  0  0
   18.1159   10.9289    0.3349 C   0  0  1  0  0  0  0  0  0  0  0  0
   16.8965   11.3686    0.7601 O   0  0  0  0  0  0  0  0  0  0  0  0
  1  2  1  0
  2  3  2  0
  3  4  1  0
  4  5  2  0
  5  6  1  0
  6  7  2  0
  7  8  1  0
  8  9  2  0
  9 10  1  0
 11 10  1  1
 11 12  1  0
 12 13  1  0
 13 14  1  6
 14 15  1  0
 15 16  1  0
 16 17  2  0
 16 18  1  1
 16 19  1  0
 20 19  1  6
 20 21  1  0
 21 22  1  6
 21 23  1  0
 23 24  1  1
 24 25  1  0
 25 26  2  0
 26 27  1  0
 27 28  2  0
 28 29  1  0
 28 30  1  0
 30 31  2  0
 31 32  1  0
 32 33  2  0
 23 34  1  0
 34 35  1  0
 35 36  1  1
 36 37  1  0
 37 38  1  0
 38 39  2  0
 38 40  1  6
 38 41  1  0
 42 41  1  6
 42 43  1  0
 43 44  1  6
  7  2  1  0
 43 11  1  0
 10  6  1  0
 42 13  1  0
 35 20  1  0
 33 24  1  0
 33 27  1  0
M  END
>  <shape_align_shape_tanimoto>  (3) 
0.39807173969591014

>  <shape_align_color_tanimoto>  (3) 
0.051873730874962123

>  <metric>  (3) 
combo

>  <metric_score>  (3) 
0.225

>  <template_pid>  (3) 
4RWW

>  <template_shape_score>  (3) 
0.398

>  <template_color_score>  (3) 
0.052

>  <template_combo_score>  (3) 
0.225

$$$$
