2O9A_shape_pose
     RDKit          3D

  6  5  0  0  0  0  0  0  0  0999 V2000
   36.4189   51.8205    9.9347 C   0  0  0  0  0  0  0  0  0  0  0  0
   36.4796   50.3075   10.0210 C   0  0  2  0  0  0  0  0  0  0  0  0
   37.6246   49.8904    9.3701 O   0  0  0  0  0  0  0  0  0  0  0  0
   35.2307   49.7325    9.4989 C   0  0  0  0  0  0  0  0  0  0  0  0
   34.4670   50.3983    8.7599 O   0  0  0  0  0  0  0  0  0  0  0  0
   34.8253   48.4198    9.7940 O   0  0  0  0  0  0  0  0  0  0  0  0
  2  1  1  6
  2  3  1  0
  2  4  1  0
  4  5  2  0
  4  6  1  0
M  CHG  1   6  -1
M  END
>  <shape_align_shape_tanimoto>  (1) 
0.44840093099732781

>  <shape_align_color_tanimoto>  (1) 
0.091855941856012965

>  <metric>  (1) 
shape

>  <metric_score>  (1) 
0.448

>  <template_pid>  (1) 
2O9A

>  <template_shape_score>  (1) 
0.448

>  <template_color_score>  (1) 
0.092

>  <template_combo_score>  (1) 
0.270

$$$$
2O9A_color_pose
     RDKit          3D

  6  5  0  0  0  0  0  0  0  0999 V2000
   33.0444   52.1703    9.3304 C   0  0  0  0  0  0  0  0  0  0  0  0
   34.2501   52.8640    9.8975 C   0  0  2  0  0  0  0  0  0  0  0  0
   34.3722   54.1647    9.3637 O   0  0  0  0  0  0  0  0  0  0  0  0
   35.4678   52.0867    9.5743 C   0  0  0  0  0  0  0  0  0  0  0  0
   36.2161   52.4668    8.6466 O   0  0  0  0  0  0  0  0  0  0  0  0
   35.8099   50.9400   10.2726 O   0  0  0  0  0  0  0  0  0  0  0  0
  2  1  1  6
  2  3  1  0
  2  4  1  0
  4  5  2  0
  4  6  1  0
M  CHG  1   6  -1
M  END
>  <shape_align_shape_tanimoto>  (2) 
0.43827864001460864

>  <shape_align_color_tanimoto>  (2) 
0.1454975177851093

>  <metric>  (2) 
color

>  <metric_score>  (2) 
0.145

>  <template_pid>  (2) 
2O9A

>  <template_shape_score>  (2) 
0.438

>  <template_color_score>  (2) 
0.145

>  <template_combo_score>  (2) 
0.292

$$$$
2O9A_combo_pose
     RDKit          3D

  6  5  0  0  0  0  0  0  0  0999 V2000
   33.0444   52.1703    9.3304 C   0  0  0  0  0  0  0  0  0  0  0  0
   34.2501   52.8640    9.8975 C   0  0  2  0  0  0  0  0  0  0  0  0
   34.3722   54.1647    9.3637 O   0  0  0  0  0  0  0  0  0  0  0  0
   35.4678   52.0867    9.5743 C   0  0  0  0  0  0  0  0  0  0  0  0
   36.2161   52.4668    8.6466 O   0  0  0  0  0  0  0  0  0  0  0  0
   35.8099   50.9400   10.2726 O   0  0  0  0  0  0  0  0  0  0  0  0
  2  1  1  6
  2  3  1  0
  2  4  1  0
  4  5  2  0
  4  6  1  0
M  CHG  1   6  -1
M  END
>  <shape_align_shape_tanimoto>  (3) 
0.43827864001460864

>  <shape_align_color_tanimoto>  (3) 
0.1454975177851093

>  <metric>  (3) 
combo

>  <metric_score>  (3) 
0.292

>  <template_pid>  (3) 
2O9A

>  <template_shape_score>  (3) 
0.438

>  <template_color_score>  (3) 
0.145

>  <template_combo_score>  (3) 
0.292

$$$$
