3BZ3_shape_pose
     RDKit          3D

 35 38  0  0  0  0  0  0  0  0999 V2000
  -81.8301  -13.1246    3.0916 C   0  0  0  0  0  0  0  0  0  0  0  0
  -80.7484  -12.2259    2.7819 N   0  0  0  0  0  0  0  0  0  0  0  0
  -80.6068  -10.8573    3.0590 C   0  0  0  0  0  0  0  0  0  0  0  0
  -79.4781  -10.2464    2.5589 N   0  0  0  0  0  0  0  0  0  0  0  0
  -79.2207   -8.9316    2.7198 C   0  0  0  0  0  0  0  0  0  0  0  0
  -80.0825   -8.1008    3.4049 C   0  0  0  0  0  0  0  0  0  0  0  0
  -81.2278   -8.6656    3.9265 C   0  0  0  0  0  0  0  0  0  0  0  0
  -81.4726  -10.0471    3.7441 C   0  0  0  0  0  0  0  0  0  0  0  0
  -82.6929  -10.5671    4.4008 C   0  0  0  0  0  0  0  0  0  0  0  0
  -82.4180  -11.1376    5.7430 N   0  0  0  0  0  0  0  0  0  0  0  0
  -83.5274  -11.7000    6.4939 C   0  0  0  0  0  0  0  0  0  0  0  0
  -84.7584  -11.6834    5.9440 N   0  0  0  0  0  0  0  0  0  0  0  0
  -85.8628  -12.1966    6.5845 C   0  0  0  0  0  0  0  0  0  0  0  0
  -87.1184  -12.1315    5.9367 N   0  0  0  0  0  0  0  0  0  0  0  0
  -88.3540  -12.6320    6.4119 C   0  0  0  0  0  0  0  0  0  0  0  0
  -89.5247  -12.3705    5.6643 C   0  0  0  0  0  0  0  0  0  0  0  0
  -90.7643  -12.8341    6.0643 C   0  0  0  0  0  0  0  0  0  0  0  0
  -90.9087  -13.5785    7.2216 C   0  0  0  0  0  0  0  0  0  0  0  0
  -89.7781  -13.8479    7.9705 C   0  0  0  0  0  0  0  0  0  0  0  0
  -88.5402  -13.3750    7.5549 C   0  0  0  0  0  0  0  0  0  0  0  0
  -90.2044  -14.6575    9.1565 C   0  0  0  0  0  0  0  0  0  0  0  0
  -91.6725  -14.8364    9.0215 C   0  0  0  0  0  0  0  0  0  0  0  0
  -92.3709  -15.4821    9.8520 O   0  0  0  0  0  0  0  0  0  0  0  0
  -92.0713  -14.1604    7.8277 N   0  0  0  0  0  0  0  0  0  0  0  0
  -85.6266  -12.7173    7.8009 N   0  0  0  0  0  0  0  0  0  0  0  0
  -84.4276  -12.7711    8.4177 C   0  0  0  0  0  0  0  0  0  0  0  0
  -83.3326  -12.2475    7.7515 C   0  0  0  0  0  0  0  0  0  0  0  0
  -81.9772  -12.2653    8.3594 C   0  0  0  0  0  0  0  0  0  0  0  0
  -81.5112  -10.9771    8.4880 F   0  0  0  0  0  0  0  0  0  0  0  0
  -82.0731  -12.7819    9.6620 F   0  0  0  0  0  0  0  0  0  0  0  0
  -81.0553  -13.0226    7.6961 F   0  0  0  0  0  0  0  0  0  0  0  0
  -79.4101  -12.9566    1.8751 S   0  0  0  0  0  0  0  0  0  0  0  0
  -77.8896  -12.8544    2.7605 C   0  0  0  0  0  0  0  0  0  0  0  0
  -79.2999  -12.0828    0.6280 O   0  0  0  0  0  0  0  0  0  0  0  0
  -79.7620  -14.3235    1.3888 O   0  0  0  0  0  0  0  0  0  0  0  0
  1  2  1  0
  2  3  1  0
  3  4  2  0
  4  5  1  0
  5  6  2  0
  6  7  1  0
  7  8  2  0
  8  9  1  0
  9 10  1  0
 10 11  1  0
 11 12  2  0
 12 13  1  0
 13 14  1  0
 14 15  1  0
 15 16  2  0
 16 17  1  0
 17 18  2  0
 18 19  1  0
 19 20  2  0
 19 21  1  0
 21 22  1  0
 22 23  2  0
 22 24  1  0
 13 25  2  0
 25 26  1  0
 26 27  2  0
 27 28  1  0
 28 29  1  0
 28 30  1  0
 28 31  1  0
  2 32  1  0
 32 33  1  0
 32 34  2  0
 32 35  2  0
  8  3  1  0
 27 11  1  0
 20 15  1  0
 24 18  1  0
M  END
>  <shape_align_shape_tanimoto>  (1) 
0.58047859682280878

>  <shape_align_color_tanimoto>  (1) 
0.062244090789930366

>  <metric>  (1) 
shape

>  <metric_score>  (1) 
0.580

>  <template_pid>  (1) 
3BZ3

>  <template_shape_score>  (1) 
0.580

>  <template_color_score>  (1) 
0.062

>  <template_combo_score>  (1) 
0.321

$$$$
3BZ3_color_pose
     RDKit          3D

 35 38  0  0  0  0  0  0  0  0999 V2000
  -90.9613  -11.7274   11.2150 C   0  0  0  0  0  0  0  0  0  0  0  0
  -91.5834  -12.0935    9.9305 N   0  0  0  0  0  0  0  0  0  0  0  0
  -91.6854  -13.4762    9.6675 C   0  0  0  0  0  0  0  0  0  0  0  0
  -92.8312  -14.0853   10.0957 N   0  0  0  0  0  0  0  0  0  0  0  0
  -93.0376  -15.4046    9.9291 C   0  0  0  0  0  0  0  0  0  0  0  0
  -92.0836  -16.2055    9.3090 C   0  0  0  0  0  0  0  0  0  0  0  0
  -90.9197  -15.6091    8.8690 C   0  0  0  0  0  0  0  0  0  0  0  0
  -90.7230  -14.2351    9.0506 C   0  0  0  0  0  0  0  0  0  0  0  0
  -89.4862  -13.6608    8.5350 C   0  0  0  0  0  0  0  0  0  0  0  0
  -89.6726  -13.0153    7.2282 N   0  0  0  0  0  0  0  0  0  0  0  0
  -88.5922  -12.3770    6.5543 C   0  0  0  0  0  0  0  0  0  0  0  0
  -87.3602  -12.2983    7.0550 N   0  0  0  0  0  0  0  0  0  0  0  0
  -86.2983  -11.7198    6.5117 C   0  0  0  0  0  0  0  0  0  0  0  0
  -85.0058  -11.6612    7.0854 N   0  0  0  0  0  0  0  0  0  0  0  0
  -84.5966  -12.1881    8.3111 C   0  0  0  0  0  0  0  0  0  0  0  0
  -85.3896  -12.8874    9.1943 C   0  0  0  0  0  0  0  0  0  0  0  0
  -84.9248  -13.3857   10.4005 C   0  0  0  0  0  0  0  0  0  0  0  0
  -83.6156  -13.1940   10.7698 C   0  0  0  0  0  0  0  0  0  0  0  0
  -82.7931  -12.5001    9.9132 C   0  0  0  0  0  0  0  0  0  0  0  0
  -83.2720  -12.0112    8.7169 C   0  0  0  0  0  0  0  0  0  0  0  0
  -81.4209  -12.4063   10.5034 C   0  0  0  0  0  0  0  0  0  0  0  0
  -81.5875  -13.1298   11.7832 C   0  0  0  0  0  0  0  0  0  0  0  0
  -80.6700  -13.3043   12.6282 O   0  0  0  0  0  0  0  0  0  0  0  0
  -82.9174  -13.6030   11.9371 N   0  0  0  0  0  0  0  0  0  0  0  0
  -86.4802  -11.1331    5.2951 N   0  0  0  0  0  0  0  0  0  0  0  0
  -87.6948  -11.1818    4.7456 C   0  0  0  0  0  0  0  0  0  0  0  0
  -88.7946  -11.7821    5.3103 C   0  0  0  0  0  0  0  0  0  0  0  0
  -90.1103  -11.8046    4.6319 C   0  0  0  0  0  0  0  0  0  0  0  0
  -89.9779  -11.1267    3.4149 F   0  0  0  0  0  0  0  0  0  0  0  0
  -90.5135  -13.0893    4.3247 F   0  0  0  0  0  0  0  0  0  0  0  0
  -91.0634  -11.1391    5.3694 F   0  0  0  0  0  0  0  0  0  0  0  0
  -92.1011  -10.8278    8.9252 S   0  0  0  0  0  0  0  0  0  0  0  0
  -90.6757   -9.9088    8.3984 C   0  0  0  0  0  0  0  0  0  0  0  0
  -92.9322  -11.3024    7.7666 O   0  0  0  0  0  0  0  0  0  0  0  0
  -92.9353   -9.8876    9.7874 O   0  0  0  0  0  0  0  0  0  0  0  0
  1  2  1  0
  2  3  1  0
  3  4  2  0
  4  5  1  0
  5  6  2  0
  6  7  1  0
  7  8  2  0
  8  9  1  0
  9 10  1  0
 10 11  1  0
 11 12  2  0
 12 13  1  0
 13 14  1  0
 14 15  1  0
 15 16  2  0
 16 17  1  0
 17 18  2  0
 18 19  1  0
 19 20  2  0
 19 21  1  0
 21 22  1  0
 22 23  2  0
 22 24  1  0
 13 25  2  0
 25 26  1  0
 26 27  2  0
 27 28  1  0
 28 29  1  0
 28 30  1  0
 28 31  1  0
  2 32  1  0
 32 33  1  0
 32 34  2  0
 32 35  2  0
  8  3  1  0
 27 11  1  0
 20 15  1  0
 24 18  1  0
M  END
>  <shape_align_shape_tanimoto>  (2) 
0.33031958313762783

>  <shape_align_color_tanimoto>  (2) 
0.18331567547720373

>  <metric>  (2) 
color

>  <metric_score>  (2) 
0.183

>  <template_pid>  (2) 
3BZ3

>  <template_shape_score>  (2) 
0.330

>  <template_color_score>  (2) 
0.183

>  <template_combo_score>  (2) 
0.257

$$$$
3BZ3_combo_pose
     RDKit          3D

 35 38  0  0  0  0  0  0  0  0999 V2000
  -90.2843  -12.2689   11.4552 C   0  0  0  0  0  0  0  0  0  0  0  0
  -91.2787  -12.3233   10.3700 N   0  0  0  0  0  0  0  0  0  0  0  0
  -91.5667  -13.6039    9.8565 C   0  0  0  0  0  0  0  0  0  0  0  0
  -92.6116  -14.2605   10.4501 N   0  0  0  0  0  0  0  0  0  0  0  0
  -92.9895  -15.4952   10.1226 C   0  0  0  0  0  0  0  0  0  0  0  0
  -92.3020  -16.1620    9.1345 C   0  0  0  0  0  0  0  0  0  0  0  0
  -91.2520  -15.5168    8.5290 C   0  0  0  0  0  0  0  0  0  0  0  0
  -90.8594  -14.2182    8.8774 C   0  0  0  0  0  0  0  0  0  0  0  0
  -89.7515  -13.6349    8.1360 C   0  0  0  0  0  0  0  0  0  0  0  0
  -90.1058  -12.8138    6.9993 N   0  0  0  0  0  0  0  0  0  0  0  0
  -89.0011  -12.2406    6.2554 C   0  0  0  0  0  0  0  0  0  0  0  0
  -87.7519  -12.4506    6.6685 N   0  0  0  0  0  0  0  0  0  0  0  0
  -86.6739  -11.9207    6.0166 C   0  0  0  0  0  0  0  0  0  0  0  0
  -85.3904  -12.1980    6.5308 N   0  0  0  0  0  0  0  0  0  0  0  0
  -84.1532  -11.7725    6.0033 C   0  0  0  0  0  0  0  0  0  0  0  0
  -82.9744  -12.1327    6.6652 C   0  0  0  0  0  0  0  0  0  0  0  0
  -81.7288  -11.7636    6.2138 C   0  0  0  0  0  0  0  0  0  0  0  0
  -81.6077  -11.0078    5.0657 C   0  0  0  0  0  0  0  0  0  0  0  0
  -82.7418  -10.6321    4.3847 C   0  0  0  0  0  0  0  0  0  0  0  0
  -83.9921  -11.0211    4.8659 C   0  0  0  0  0  0  0  0  0  0  0  0
  -82.3443   -9.8201    3.1809 C   0  0  0  0  0  0  0  0  0  0  0  0
  -80.8581   -9.8034    3.2647 C   0  0  0  0  0  0  0  0  0  0  0  0
  -80.1006   -9.2355    2.4349 O   0  0  0  0  0  0  0  0  0  0  0  0
  -80.4356  -10.5256    4.4213 N   0  0  0  0  0  0  0  0  0  0  0  0
  -86.9491  -11.1850    4.9479 N   0  0  0  0  0  0  0  0  0  0  0  0
  -88.1676  -10.9197    4.4593 C   0  0  0  0  0  0  0  0  0  0  0  0
  -89.2708  -11.4648    5.1295 C   0  0  0  0  0  0  0  0  0  0  0  0
  -90.6112  -11.2096    4.6084 C   0  0  0  0  0  0  0  0  0  0  0  0
  -90.5125  -10.4134    3.4551 F   0  0  0  0  0  0  0  0  0  0  0  0
  -91.3908  -10.5075    5.4667 F   0  0  0  0  0  0  0  0  0  0  0  0
  -91.2552  -12.3582    4.1909 F   0  0  0  0  0  0  0  0  0  0  0  0
  -91.9747  -10.8522    9.8506 S   0  0  0  0  0  0  0  0  0  0  0  0
  -93.7512  -10.8502   10.1103 C   0  0  0  0  0  0  0  0  0  0  0  0
  -91.7263  -10.5277    8.4146 O   0  0  0  0  0  0  0  0  0  0  0  0
  -91.4390   -9.6817   10.6514 O   0  0  0  0  0  0  0  0  0  0  0  0
  1  2  1  0
  2  3  1  0
  3  4  2  0
  4  5  1  0
  5  6  2  0
  6  7  1  0
  7  8  2  0
  8  9  1  0
  9 10  1  0
 10 11  1  0
 11 12  2  0
 12 13  1  0
 13 14  1  0
 14 15  1  0
 15 16  2  0
 16 17  1  0
 17 18  2  0
 18 19  1  0
 19 20  2  0
 19 21  1  0
 21 22  1  0
 22 23  2  0
 22 24  1  0
 13 25  2  0
 25 26  1  0
 26 27  2  0
 27 28  1  0
 28 29  1  0
 28 30  1  0
 28 31  1  0
  2 32  1  0
 32 33  1  0
 32 34  2  0
 32 35  2  0
  8  3  1  0
 27 11  1  0
 20 15  1  0
 24 18  1  0
M  END
>  <shape_align_shape_tanimoto>  (3) 
0.57951614597938916

>  <shape_align_color_tanimoto>  (3) 
0.10453651508193208

>  <metric>  (3) 
combo

>  <metric_score>  (3) 
0.342

>  <template_pid>  (3) 
3BZ3

>  <template_shape_score>  (3) 
0.580

>  <template_color_score>  (3) 
0.105

>  <template_combo_score>  (3) 
0.342

$$$$
