4TY9_shape_pose
     RDKit          3D

 11 11  0  0  0  0  0  0  0  0999 V2000
  -25.5137  -13.5606   29.0935 N   0  0  0  0  0  0  0  0  0  0  0  0
  -25.3100  -12.2527   29.6654 C   0  0  0  0  0  0  0  0  0  0  0  0
  -25.4572  -12.0721   31.0263 C   0  0  0  0  0  0  0  0  0  0  0  0
  -25.2722  -10.8388   31.6177 C   0  0  0  0  0  0  0  0  0  0  0  0
  -24.9333   -9.7915   30.7892 C   0  0  0  0  0  0  0  0  0  0  0  0
  -24.7077   -8.4038   31.3261 C   0  0  0  0  0  0  0  0  0  0  0  0
  -23.6879   -7.7839   30.6311 F   0  0  0  0  0  0  0  0  0  0  0  0
  -24.5167   -8.4389   32.6787 F   0  0  0  0  0  0  0  0  0  0  0  0
  -25.8576   -7.6574   31.0807 F   0  0  0  0  0  0  0  0  0  0  0  0
  -24.7827   -9.9675   29.4100 C   0  0  0  0  0  0  0  0  0  0  0  0
  -24.9738  -11.1972   28.8697 N   0  0  0  0  0  0  0  0  0  0  0  0
  1  2  1  0
  2  3  2  0
  3  4  1  0
  4  5  2  0
  5  6  1  0
  6  7  1  0
  6  8  1  0
  6  9  1  0
  5 10  1  0
 10 11  2  0
 11  2  1  0
M  END
>  <shape_align_shape_tanimoto>  (1) 
0.29234603737670778

>  <shape_align_color_tanimoto>  (1) 
0.0072956402282414699

>  <metric>  (1) 
shape

>  <metric_score>  (1) 
0.292

>  <template_pid>  (1) 
4TY9

>  <template_shape_score>  (1) 
0.292

>  <template_color_score>  (1) 
0.007

>  <template_combo_score>  (1) 
0.150

$$$$
4TY9_color_pose
     RDKit          3D

 11 11  0  0  0  0  0  0  0  0999 V2000
  -23.1602   -8.4259   33.1118 N   0  0  0  0  0  0  0  0  0  0  0  0
  -23.7297   -7.9496   31.9000 C   0  0  0  0  0  0  0  0  0  0  0  0
  -25.0270   -7.4548   31.8478 C   0  0  0  0  0  0  0  0  0  0  0  0
  -25.5387   -7.0033   30.6508 C   0  0  0  0  0  0  0  0  0  0  0  0
  -24.7694   -7.0412   29.5091 C   0  0  0  0  0  0  0  0  0  0  0  0
  -25.2952   -6.5581   28.1907 C   0  0  0  0  0  0  0  0  0  0  0  0
  -26.1028   -5.4552   28.3962 F   0  0  0  0  0  0  0  0  0  0  0  0
  -24.2676   -6.1888   27.3483 F   0  0  0  0  0  0  0  0  0  0  0  0
  -26.0558   -7.5362   27.5811 F   0  0  0  0  0  0  0  0  0  0  0  0
  -23.4989   -7.5370   29.6115 C   0  0  0  0  0  0  0  0  0  0  0  0
  -22.9913   -7.9773   30.7643 N   0  0  0  0  0  0  0  0  0  0  0  0
  1  2  1  0
  2  3  2  0
  3  4  1  0
  4  5  2  0
  5  6  1  0
  6  7  1  0
  6  8  1  0
  6  9  1  0
  5 10  1  0
 10 11  2  0
 11  2  1  0
M  END
>  <shape_align_shape_tanimoto>  (2) 
0.28447111219243981

>  <shape_align_color_tanimoto>  (2) 
0.066644370555433555

>  <metric>  (2) 
color

>  <metric_score>  (2) 
0.067

>  <template_pid>  (2) 
4TY9

>  <template_shape_score>  (2) 
0.284

>  <template_color_score>  (2) 
0.067

>  <template_combo_score>  (2) 
0.176

$$$$
4TY9_combo_pose
     RDKit          3D

 11 11  0  0  0  0  0  0  0  0999 V2000
  -20.9723  -11.9344   31.8180 N   0  0  0  0  0  0  0  0  0  0  0  0
  -22.0059  -10.9543   31.6223 C   0  0  0  0  0  0  0  0  0  0  0  0
  -22.4003  -10.5617   30.3503 C   0  0  0  0  0  0  0  0  0  0  0  0
  -23.4014   -9.6127   30.1786 C   0  0  0  0  0  0  0  0  0  0  0  0
  -24.0256   -9.0396   31.2707 C   0  0  0  0  0  0  0  0  0  0  0  0
  -25.1113   -8.0108   31.1099 C   0  0  0  0  0  0  0  0  0  0  0  0
  -26.3425   -8.6677   30.9817 F   0  0  0  0  0  0  0  0  0  0  0  0
  -24.9375   -7.3095   29.9449 F   0  0  0  0  0  0  0  0  0  0  0  0
  -25.1712   -7.2350   32.2240 F   0  0  0  0  0  0  0  0  0  0  0  0
  -23.6011   -9.4602   32.5154 C   0  0  0  0  0  0  0  0  0  0  0  0
  -22.6316  -10.3793   32.6913 N   0  0  0  0  0  0  0  0  0  0  0  0
  1  2  1  0
  2  3  2  0
  3  4  1  0
  4  5  2  0
  5  6  1  0
  6  7  1  0
  6  8  1  0
  6  9  1  0
  5 10  1  0
 10 11  2  0
 11  2  1  0
M  END
>  <shape_align_shape_tanimoto>  (3) 
0.29036300317264807

>  <shape_align_color_tanimoto>  (3) 
0.062973119146390893

>  <metric>  (3) 
combo

>  <metric_score>  (3) 
0.177

>  <template_pid>  (3) 
4TY9

>  <template_shape_score>  (3) 
0.290

>  <template_color_score>  (3) 
0.063

>  <template_combo_score>  (3) 
0.177

$$$$
