5WPB_shape_pose
     RDKit          3D

 23 25  0  0  0  0  0  0  0  0999 V2000
  -17.0933   -2.0802   -4.3867 O   0  0  0  0  0  0  0  0  0  0  0  0
  -17.3292   -3.2725   -4.7356 C   0  0  0  0  0  0  0  0  0  0  0  0
  -16.3343   -4.1547   -5.1331 O   0  0  0  0  0  0  0  0  0  0  0  0
  -18.7514   -3.7711   -4.7232 C   0  0  0  0  0  0  0  0  0  0  0  0
  -19.6809   -2.6826   -4.2516 C   0  0  0  0  0  0  0  0  0  0  0  0
  -21.0946   -3.0613   -4.2015 C   0  0  0  0  0  0  0  0  0  0  0  0
  -21.6902   -3.3386   -3.0321 N   0  0  0  0  0  0  0  0  0  0  0  0
  -22.9818   -3.6897   -2.9392 C   0  0  0  0  0  0  0  0  0  0  0  0
  -23.5236   -3.9590   -1.6998 C   0  0  0  0  0  0  0  0  0  0  0  0
  -24.8561   -4.3135   -1.6682 C   0  0  0  0  0  0  0  0  0  0  0  0
  -25.6458   -4.4067   -2.7953 C   0  0  0  0  0  0  0  0  0  0  0  0
  -25.0609   -4.1276   -4.0197 C   0  0  0  0  0  0  0  0  0  0  0  0
  -23.7262   -3.7672   -4.1032 C   0  0  0  0  0  0  0  0  0  0  0  0
  -23.1303   -3.4896   -5.2747 N   0  0  0  0  0  0  0  0  0  0  0  0
  -21.8388   -3.1378   -5.3745 C   0  0  0  0  0  0  0  0  0  0  0  0
  -21.2322   -2.8511   -6.6072 O   0  0  0  0  0  0  0  0  0  0  0  0
  -22.0473   -2.9475   -7.7597 C   0  0  0  0  0  0  0  0  0  0  0  0
  -21.2603   -2.6159   -8.9574 C   0  0  0  0  0  0  0  0  0  0  0  0
  -19.9003   -2.3017   -8.8564 C   0  0  0  0  0  0  0  0  0  0  0  0
  -19.1969   -1.9940  -10.0137 C   0  0  0  0  0  0  0  0  0  0  0  0
  -19.8824   -2.0162  -11.2005 C   0  0  0  0  0  0  0  0  0  0  0  0
  -21.2287   -2.3289  -11.2859 C   0  0  0  0  0  0  0  0  0  0  0  0
  -21.8789   -2.6197  -10.1620 N   0  0  0  0  0  0  0  0  0  0  0  0
  1  2  2  0
  2  3  1  0
  2  4  1  0
  4  5  1  0
  5  6  1  0
  6  7  2  0
  7  8  1  0
  8  9  2  0
  9 10  1  0
 10 11  2  0
 11 12  1  0
 12 13  2  0
 13 14  1  0
 14 15  2  0
 15 16  1  0
 16 17  1  0
 17 18  1  0
 18 19  2  0
 19 20  1  0
 20 21  2  0
 21 22  1  0
 22 23  2  0
 15  6  1  0
 23 18  1  0
 13  8  1  0
M  CHG  1   3  -1
M  END
>  <shape_align_shape_tanimoto>  (1) 
0.18169529824422351

>  <shape_align_color_tanimoto>  (1) 
0.0028305026100488703

>  <metric>  (1) 
shape

>  <metric_score>  (1) 
0.182

>  <template_pid>  (1) 
5WPB

>  <template_shape_score>  (1) 
0.182

>  <template_color_score>  (1) 
0.003

>  <template_combo_score>  (1) 
0.092

$$$$
5WPB_color_pose
     RDKit          3D

 23 25  0  0  0  0  0  0  0  0999 V2000
  -22.3918   -4.4574   -4.8541 O   0  0  0  0  0  0  0  0  0  0  0  0
  -21.4965   -3.7631   -5.4493 C   0  0  0  0  0  0  0  0  0  0  0  0
  -21.0591   -4.1208   -6.7408 O   0  0  0  0  0  0  0  0  0  0  0  0
  -20.9664   -2.6016   -4.7267 C   0  0  0  0  0  0  0  0  0  0  0  0
  -19.8296   -2.8848   -3.7799 C   0  0  0  0  0  0  0  0  0  0  0  0
  -18.6396   -3.4523   -4.4465 C   0  0  0  0  0  0  0  0  0  0  0  0
  -17.6242   -2.5923   -4.7264 N   0  0  0  0  0  0  0  0  0  0  0  0
  -16.5025   -2.9944   -5.3463 C   0  0  0  0  0  0  0  0  0  0  0  0
  -15.4520   -2.1529   -5.6464 C   0  0  0  0  0  0  0  0  0  0  0  0
  -14.3244   -2.6214   -6.2838 C   0  0  0  0  0  0  0  0  0  0  0  0
  -14.2457   -3.9712   -6.6310 C   0  0  0  0  0  0  0  0  0  0  0  0
  -15.2868   -4.8383   -6.3412 C   0  0  0  0  0  0  0  0  0  0  0  0
  -16.3882   -4.3154   -5.7035 C   0  0  0  0  0  0  0  0  0  0  0  0
  -17.4008   -5.1473   -5.4183 N   0  0  0  0  0  0  0  0  0  0  0  0
  -18.5413   -4.8077   -4.8035 C   0  0  0  0  0  0  0  0  0  0  0  0
  -19.5819   -5.6034   -4.4930 O   0  0  0  0  0  0  0  0  0  0  0  0
  -19.7988   -6.9465   -4.7017 C   0  0  0  0  0  0  0  0  0  0  0  0
  -19.8044   -7.3124   -6.1288 C   0  0  0  0  0  0  0  0  0  0  0  0
  -18.7039   -7.6054   -6.8842 C   0  0  0  0  0  0  0  0  0  0  0  0
  -18.8567   -7.9671   -8.2218 C   0  0  0  0  0  0  0  0  0  0  0  0
  -20.1117   -8.0309   -8.7838 C   0  0  0  0  0  0  0  0  0  0  0  0
  -21.2258   -7.7294   -7.9984 C   0  0  0  0  0  0  0  0  0  0  0  0
  -21.0062   -7.3932   -6.7365 N   0  0  0  0  0  0  0  0  0  0  0  0
  1  2  2  0
  2  3  1  0
  2  4  1  0
  4  5  1  0
  5  6  1  0
  6  7  2  0
  7  8  1  0
  8  9  2  0
  9 10  1  0
 10 11  2  0
 11 12  1  0
 12 13  2  0
 13 14  1  0
 14 15  2  0
 15 16  1  0
 16 17  1  0
 17 18  1  0
 18 19  2  0
 19 20  1  0
 20 21  2  0
 21 22  1  0
 22 23  2  0
 15  6  1  0
 23 18  1  0
 13  8  1  0
M  CHG  1   3  -1
M  END
>  <shape_align_shape_tanimoto>  (2) 
0.16652000422205418

>  <shape_align_color_tanimoto>  (2) 
0.032026274017537229

>  <metric>  (2) 
color

>  <metric_score>  (2) 
0.032

>  <template_pid>  (2) 
5WPB

>  <template_shape_score>  (2) 
0.167

>  <template_color_score>  (2) 
0.032

>  <template_combo_score>  (2) 
0.099

$$$$
5WPB_combo_pose
     RDKit          3D

 23 25  0  0  0  0  0  0  0  0999 V2000
  -22.3918   -4.4574   -4.8541 O   0  0  0  0  0  0  0  0  0  0  0  0
  -21.4965   -3.7631   -5.4493 C   0  0  0  0  0  0  0  0  0  0  0  0
  -21.0591   -4.1208   -6.7408 O   0  0  0  0  0  0  0  0  0  0  0  0
  -20.9664   -2.6016   -4.7267 C   0  0  0  0  0  0  0  0  0  0  0  0
  -19.8296   -2.8848   -3.7799 C   0  0  0  0  0  0  0  0  0  0  0  0
  -18.6396   -3.4523   -4.4465 C   0  0  0  0  0  0  0  0  0  0  0  0
  -17.6242   -2.5923   -4.7264 N   0  0  0  0  0  0  0  0  0  0  0  0
  -16.5025   -2.9944   -5.3463 C   0  0  0  0  0  0  0  0  0  0  0  0
  -15.4520   -2.1529   -5.6464 C   0  0  0  0  0  0  0  0  0  0  0  0
  -14.3244   -2.6214   -6.2838 C   0  0  0  0  0  0  0  0  0  0  0  0
  -14.2457   -3.9712   -6.6310 C   0  0  0  0  0  0  0  0  0  0  0  0
  -15.2868   -4.8383   -6.3412 C   0  0  0  0  0  0  0  0  0  0  0  0
  -16.3882   -4.3154   -5.7035 C   0  0  0  0  0  0  0  0  0  0  0  0
  -17.4008   -5.1473   -5.4183 N   0  0  0  0  0  0  0  0  0  0  0  0
  -18.5413   -4.8077   -4.8035 C   0  0  0  0  0  0  0  0  0  0  0  0
  -19.5819   -5.6034   -4.4930 O   0  0  0  0  0  0  0  0  0  0  0  0
  -19.7988   -6.9465   -4.7017 C   0  0  0  0  0  0  0  0  0  0  0  0
  -19.8044   -7.3124   -6.1288 C   0  0  0  0  0  0  0  0  0  0  0  0
  -18.7039   -7.6054   -6.8842 C   0  0  0  0  0  0  0  0  0  0  0  0
  -18.8567   -7.9671   -8.2218 C   0  0  0  0  0  0  0  0  0  0  0  0
  -20.1117   -8.0309   -8.7838 C   0  0  0  0  0  0  0  0  0  0  0  0
  -21.2258   -7.7294   -7.9984 C   0  0  0  0  0  0  0  0  0  0  0  0
  -21.0062   -7.3932   -6.7365 N   0  0  0  0  0  0  0  0  0  0  0  0
  1  2  2  0
  2  3  1  0
  2  4  1  0
  4  5  1  0
  5  6  1  0
  6  7  2  0
  7  8  1  0
  8  9  2  0
  9 10  1  0
 10 11  2  0
 11 12  1  0
 12 13  2  0
 13 14  1  0
 14 15  2  0
 15 16  1  0
 16 17  1  0
 17 18  1  0
 18 19  2  0
 19 20  1  0
 20 21  2  0
 21 22  1  0
 22 23  2  0
 15  6  1  0
 23 18  1  0
 13  8  1  0
M  CHG  1   3  -1
M  END
>  <shape_align_shape_tanimoto>  (3) 
0.16652000422205418

>  <shape_align_color_tanimoto>  (3) 
0.032026274017537229

>  <metric>  (3) 
combo

>  <metric_score>  (3) 
0.099

>  <template_pid>  (3) 
5WPB

>  <template_shape_score>  (3) 
0.167

>  <template_color_score>  (3) 
0.032

>  <template_combo_score>  (3) 
0.099

$$$$
