5C7B_shape_pose
     RDKit          3D

 15 16  0  0  0  0  0  0  0  0999 V2000
   36.2172   -6.0075   17.2080 C   0  0  0  0  0  0  0  0  0  0  0  0
   35.4695   -6.9749   16.3504 C   0  0  2  0  0  0  0  0  0  0  0  0
   34.7798   -6.1803   15.2393 C   0  0  0  0  0  0  0  0  0  0  0  0
   34.4064   -7.1507   14.2464 N   0  0  2  0  0  0  0  0  0  0  0  0
   33.8515   -6.4604   13.1088 C   0  0  0  0  0  0  0  0  0  0  0  0
   34.8712   -5.7757   12.3012 C   0  0  0  0  0  0  0  0  0  0  0  0
   36.1017   -5.7746   12.5509 O   0  0  0  0  0  0  0  0  0  0  0  0
   34.4459   -5.0596   11.1520 N   0  0  0  0  0  0  0  0  0  0  0  0
   35.2619   -4.3050   10.1991 C   0  0  0  0  0  0  0  0  0  0  0  0
   34.4847   -2.9867   10.2121 C   0  0  0  0  0  0  0  0  0  0  0  0
   33.0437   -3.3956   10.4779 C   0  0  0  0  0  0  0  0  0  0  0  0
   33.0784   -4.9029   10.6403 C   0  0  0  0  0  0  0  0  0  0  0  0
   33.4415   -8.0496   14.8054 C   0  0  0  0  0  0  0  0  0  0  0  0
   33.7822   -8.5780   16.1544 C   0  0  0  0  0  0  0  0  0  0  0  0
   34.3973   -7.6514   17.0524 N   0  0  0  0  0  0  0  0  0  0  0  0
  2  1  1  1
  2  3  1  0
  3  4  1  0
  4  5  1  6
  5  6  1  0
  6  7  2  0
  6  8  1  0
  8  9  1  0
  9 10  1  0
 10 11  1  0
 11 12  1  0
  4 13  1  0
 13 14  1  0
 14 15  1  0
 15  2  1  0
 12  8  1  0
M  CHG  2   4   1  15   1
M  END
>  <shape_align_shape_tanimoto>  (1) 
0.44861130550267808

>  <shape_align_color_tanimoto>  (1) 
0.055032461803943424

>  <metric>  (1) 
shape

>  <metric_score>  (1) 
0.449

>  <template_pid>  (1) 
5C7B

>  <template_shape_score>  (1) 
0.449

>  <template_color_score>  (1) 
0.055

>  <template_combo_score>  (1) 
0.252

$$$$
5C7B_color_pose
     RDKit          3D

 15 16  0  0  0  0  0  0  0  0999 V2000
   37.3577   -6.0776   10.5676 C   0  0  0  0  0  0  0  0  0  0  0  0
   36.4149   -5.4321   11.5664 C   0  0  2  0  0  0  0  0  0  0  0  0
   35.6277   -6.5322   12.2073 C   0  0  0  0  0  0  0  0  0  0  0  0
   34.4385   -6.0433   12.8292 N   0  0  2  0  0  0  0  0  0  0  0  0
   33.6909   -6.9488   13.5901 C   0  0  0  0  0  0  0  0  0  0  0  0
   34.1562   -7.2510   14.9342 C   0  0  0  0  0  0  0  0  0  0  0  0
   33.3587   -8.1069   15.5503 O   0  0  0  0  0  0  0  0  0  0  0  0
   35.2426   -6.8379   15.6942 N   0  0  0  0  0  0  0  0  0  0  0  0
   36.3829   -5.9739   15.5428 C   0  0  0  0  0  0  0  0  0  0  0  0
   36.3644   -5.1791   16.8534 C   0  0  0  0  0  0  0  0  0  0  0  0
   35.5698   -6.0045   17.8189 C   0  0  0  0  0  0  0  0  0  0  0  0
   35.4354   -7.3321   17.0948 C   0  0  0  0  0  0  0  0  0  0  0  0
   33.6426   -5.5562   11.6526 C   0  0  0  0  0  0  0  0  0  0  0  0
   34.3196   -4.2462   11.3260 C   0  0  0  0  0  0  0  0  0  0  0  0
   35.6336   -4.4659   10.8566 N   0  0  0  0  0  0  0  0  0  0  0  0
  2  1  1  6
  2  3  1  0
  3  4  1  0
  4  5  1  6
  5  6  1  0
  6  7  2  0
  6  8  1  0
  8  9  1  0
  9 10  1  0
 10 11  1  0
 11 12  1  0
  4 13  1  0
 13 14  1  0
 14 15  1  0
 15  2  1  0
 12  8  1  0
M  CHG  2   4   1  15   1
M  END
>  <shape_align_shape_tanimoto>  (2) 
0.39981442046563176

>  <shape_align_color_tanimoto>  (2) 
0.1933877771612636

>  <metric>  (2) 
color

>  <metric_score>  (2) 
0.193

>  <template_pid>  (2) 
5C7B

>  <template_shape_score>  (2) 
0.400

>  <template_color_score>  (2) 
0.193

>  <template_combo_score>  (2) 
0.297

$$$$
5C7B_combo_pose
     RDKit          3D

 15 16  0  0  0  0  0  0  0  0999 V2000
   33.7137   -2.8847   10.6947 C   0  0  0  0  0  0  0  0  0  0  0  0
   34.2250   -4.3119   10.7183 C   0  0  2  0  0  0  0  0  0  0  0  0
   34.0308   -4.9496   12.1008 C   0  0  0  0  0  0  0  0  0  0  0  0
   34.4577   -6.3198   11.8942 N   0  0  2  0  0  0  0  0  0  0  0  0
   33.9535   -7.2598   12.8314 C   0  0  0  0  0  0  0  0  0  0  0  0
   34.0809   -6.8742   14.2427 C   0  0  0  0  0  0  0  0  0  0  0  0
   34.5904   -5.8019   14.6537 O   0  0  0  0  0  0  0  0  0  0  0  0
   33.5929   -7.7773   15.2282 N   0  0  0  0  0  0  0  0  0  0  0  0
   32.9580   -9.0863   15.0186 C   0  0  0  0  0  0  0  0  0  0  0  0
   33.5316   -9.9725   16.1033 C   0  0  0  0  0  0  0  0  0  0  0  0
   33.8563   -9.0247   17.2225 C   0  0  0  0  0  0  0  0  0  0  0  0
   33.6023   -7.6271   16.6841 C   0  0  0  0  0  0  0  0  0  0  0  0
   35.9060   -6.2600   11.9206 C   0  0  0  0  0  0  0  0  0  0  0  0
   36.4656   -5.2474   10.9798 C   0  0  0  0  0  0  0  0  0  0  0  0
   35.5771   -4.4273   10.2636 N   0  0  0  0  0  0  0  0  0  0  0  0
  2  1  1  1
  2  3  1  0
  3  4  1  0
  4  5  1  1
  5  6  1  0
  6  7  2  0
  6  8  1  0
  8  9  1  0
  9 10  1  0
 10 11  1  0
 11 12  1  0
  4 13  1  0
 13 14  1  0
 14 15  1  0
 15  2  1  0
 12  8  1  0
M  CHG  2   4   1  15   1
M  END
>  <shape_align_shape_tanimoto>  (3) 
0.40867112483288393

>  <shape_align_color_tanimoto>  (3) 
0.19151859563192541

>  <metric>  (3) 
combo

>  <metric_score>  (3) 
0.300

>  <template_pid>  (3) 
5C7B

>  <template_shape_score>  (3) 
0.409

>  <template_color_score>  (3) 
0.192

>  <template_combo_score>  (3) 
0.300

$$$$
