4MB9_shape_pose
     RDKit          3D

 28 31  0  0  0  0  0  0  0  0999 V2000
    6.9685   17.5839   26.6039 C   0  0  0  0  0  0  0  0  0  0  0  0
    8.1177   16.9109   25.8697 C   0  0  0  0  0  0  0  0  0  0  0  0
    7.5222   16.2198   24.7335 N   0  0  0  0  0  0  0  0  0  0  0  0
    6.5554   15.2197   24.9625 C   0  0  0  0  0  0  0  0  0  0  0  0
    6.2235   14.9421   26.1591 O   0  0  0  0  0  0  0  0  0  0  0  0
    5.9879   14.5599   23.8599 N   0  0  0  0  0  0  0  0  0  0  0  0
    4.9738   13.5172   24.2067 C   0  0  0  0  0  0  0  0  0  0  0  0
    3.8734   13.3239   24.3946 N   0  0  0  0  0  0  0  0  0  0  0  0
    3.2014   12.2365   24.7040 C   0  0  0  0  0  0  0  0  0  0  0  0
    1.8315   12.0171   24.9337 C   0  0  0  0  0  0  0  0  0  0  0  0
    1.4277   10.7434   25.2441 C   0  0  0  0  0  0  0  0  0  0  0  0
   -0.0067   10.5337   25.4807 C   0  0  0  0  0  0  0  0  0  0  0  0
   -0.9355   11.1040   24.6052 C   0  0  0  0  0  0  0  0  0  0  0  0
   -2.2652   10.9111   24.8223 N   0  0  0  0  0  0  0  0  0  0  0  0
   -2.6833   10.1744   25.8754 C   0  0  0  0  0  0  0  0  0  0  0  0
   -1.7972    9.6298   26.7115 N   0  0  0  0  0  0  0  0  0  0  0  0
   -0.4628    9.7798   26.5571 C   0  0  0  0  0  0  0  0  0  0  0  0
    2.2438    9.6460   25.3539 C   0  0  0  0  0  0  0  0  0  0  0  0
    1.8214    8.3705   25.6672 O   0  0  0  0  0  0  0  0  0  0  0  0
    2.7567    7.3107   25.7532 C   0  0  0  0  0  0  0  0  0  0  0  0
    2.0162    6.0336   26.1100 C   0  0  2  0  0  0  0  0  0  0  0  0
    1.3304    6.2396   27.4388 C   0  0  0  0  0  0  0  0  0  0  0  0
    1.7604    5.0227   28.2252 C   0  0  0  0  0  0  0  0  0  0  0  0
    3.0709    4.8451   27.8051 O   0  0  0  0  0  0  0  0  0  0  0  0
    2.9379    4.8975   26.4038 C   0  0  0  0  0  0  0  0  0  0  0  0
    3.5803    9.8908   25.1236 N   0  0  0  0  0  0  0  0  0  0  0  0
    3.9825   11.1163   24.8231 C   0  0  0  0  0  0  0  0  0  0  0  0
    5.6876   11.7692   24.4609 S   0  0  0  0  0  0  0  0  0  0  0  0
  1  2  1  0
  2  3  1  0
  3  4  1  0
  4  5  2  0
  4  6  1  0
  6  7  1  0
  7  8  2  0
  8  9  1  0
  9 10  2  0
 10 11  1  0
 11 12  1  0
 12 13  2  0
 13 14  1  0
 14 15  2  0
 15 16  1  0
 16 17  2  0
 11 18  2  0
 18 19  1  0
 19 20  1  0
 21 20  1  1
 21 22  1  0
 22 23  1  0
 23 24  1  0
 24 25  1  0
 18 26  1  0
 26 27  2  0
 27 28  1  0
 28  7  1  0
 27  9  1  0
 17 12  1  0
 25 21  1  0
M  END
>  <shape_align_shape_tanimoto>  (1) 
0.63618931199690598

>  <shape_align_color_tanimoto>  (1) 
0.139046739686224

>  <metric>  (1) 
shape

>  <metric_score>  (1) 
0.636

>  <template_pid>  (1) 
4MB9

>  <template_shape_score>  (1) 
0.636

>  <template_color_score>  (1) 
0.139

>  <template_combo_score>  (1) 
0.388

$$$$
4MB9_color_pose
     RDKit          3D

 28 31  0  0  0  0  0  0  0  0999 V2000
    7.2396   17.6119   26.5677 C   0  0  0  0  0  0  0  0  0  0  0  0
    8.2528   16.8398   25.7384 C   0  0  0  0  0  0  0  0  0  0  0  0
    7.6357   16.1446   24.6271 N   0  0  0  0  0  0  0  0  0  0  0  0
    6.6420   15.1759   24.9448 C   0  0  0  0  0  0  0  0  0  0  0  0
    6.2888   14.9077   26.1229 O   0  0  0  0  0  0  0  0  0  0  0  0
    6.0039   14.4626   23.8720 N   0  0  0  0  0  0  0  0  0  0  0  0
    4.9801   13.4655   24.2141 C   0  0  0  0  0  0  0  0  0  0  0  0
    3.8875   13.2718   24.4008 N   0  0  0  0  0  0  0  0  0  0  0  0
    3.1933   12.2006   24.7138 C   0  0  0  0  0  0  0  0  0  0  0  0
    1.8186   12.0023   24.9394 C   0  0  0  0  0  0  0  0  0  0  0  0
    1.3913   10.7416   25.2554 C   0  0  0  0  0  0  0  0  0  0  0  0
   -0.0515   10.5285   25.4934 C   0  0  0  0  0  0  0  0  0  0  0  0
   -0.9250   11.1144   24.5866 C   0  0  0  0  0  0  0  0  0  0  0  0
   -2.2436   10.9193   24.8047 N   0  0  0  0  0  0  0  0  0  0  0  0
   -2.6809   10.1843   25.8621 C   0  0  0  0  0  0  0  0  0  0  0  0
   -1.8356    9.6164   26.7409 N   0  0  0  0  0  0  0  0  0  0  0  0
   -0.5111    9.7864   26.5603 C   0  0  0  0  0  0  0  0  0  0  0  0
    2.1893    9.6301   25.3760 C   0  0  0  0  0  0  0  0  0  0  0  0
    1.7399    8.3651   25.6958 O   0  0  0  0  0  0  0  0  0  0  0  0
    2.6353    7.3020   25.7933 C   0  0  0  0  0  0  0  0  0  0  0  0
    1.9632    5.9952   26.1519 C   0  0  2  0  0  0  0  0  0  0  0  0
    1.2522    6.0545   27.4654 C   0  0  0  0  0  0  0  0  0  0  0  0
    2.2593    5.4227   28.4045 C   0  0  0  0  0  0  0  0  0  0  0  0
    2.8356    4.4242   27.6448 O   0  0  0  0  0  0  0  0  0  0  0  0
    2.9565    4.8865   26.3396 C   0  0  0  0  0  0  0  0  0  0  0  0
    3.5278    9.8484   25.1511 N   0  0  0  0  0  0  0  0  0  0  0  0
    3.9560   11.0677   24.8435 C   0  0  0  0  0  0  0  0  0  0  0  0
    5.6733   11.6806   24.4868 S   0  0  0  0  0  0  0  0  0  0  0  0
  1  2  1  0
  2  3  1  0
  3  4  1  0
  4  5  2  0
  4  6  1  0
  6  7  1  0
  7  8  2  0
  8  9  1  0
  9 10  2  0
 10 11  1  0
 11 12  1  0
 12 13  2  0
 13 14  1  0
 14 15  2  0
 15 16  1  0
 16 17  2  0
 11 18  2  0
 18 19  1  0
 19 20  1  0
 21 20  1  1
 21 22  1  0
 22 23  1  0
 23 24  1  0
 24 25  1  0
 18 26  1  0
 26 27  2  0
 27 28  1  0
 28  7  1  0
 27  9  1  0
 17 12  1  0
 25 21  1  0
M  END
>  <shape_align_shape_tanimoto>  (2) 
0.63018931060808669

>  <shape_align_color_tanimoto>  (2) 
0.13970066714403606

>  <metric>  (2) 
color

>  <metric_score>  (2) 
0.140

>  <template_pid>  (2) 
4MB9

>  <template_shape_score>  (2) 
0.630

>  <template_color_score>  (2) 
0.140

>  <template_combo_score>  (2) 
0.385

$$$$
4MB9_combo_pose
     RDKit          3D

 28 31  0  0  0  0  0  0  0  0999 V2000
    6.9685   17.5839   26.6039 C   0  0  0  0  0  0  0  0  0  0  0  0
    8.1177   16.9109   25.8697 C   0  0  0  0  0  0  0  0  0  0  0  0
    7.5222   16.2198   24.7335 N   0  0  0  0  0  0  0  0  0  0  0  0
    6.5554   15.2197   24.9625 C   0  0  0  0  0  0  0  0  0  0  0  0
    6.2235   14.9421   26.1591 O   0  0  0  0  0  0  0  0  0  0  0  0
    5.9879   14.5599   23.8599 N   0  0  0  0  0  0  0  0  0  0  0  0
    4.9738   13.5172   24.2067 C   0  0  0  0  0  0  0  0  0  0  0  0
    3.8734   13.3239   24.3946 N   0  0  0  0  0  0  0  0  0  0  0  0
    3.2014   12.2365   24.7040 C   0  0  0  0  0  0  0  0  0  0  0  0
    1.8315   12.0171   24.9337 C   0  0  0  0  0  0  0  0  0  0  0  0
    1.4277   10.7434   25.2441 C   0  0  0  0  0  0  0  0  0  0  0  0
   -0.0067   10.5337   25.4807 C   0  0  0  0  0  0  0  0  0  0  0  0
   -0.9355   11.1040   24.6052 C   0  0  0  0  0  0  0  0  0  0  0  0
   -2.2652   10.9111   24.8223 N   0  0  0  0  0  0  0  0  0  0  0  0
   -2.6833   10.1744   25.8754 C   0  0  0  0  0  0  0  0  0  0  0  0
   -1.7972    9.6298   26.7115 N   0  0  0  0  0  0  0  0  0  0  0  0
   -0.4628    9.7798   26.5571 C   0  0  0  0  0  0  0  0  0  0  0  0
    2.2438    9.6460   25.3539 C   0  0  0  0  0  0  0  0  0  0  0  0
    1.8214    8.3705   25.6672 O   0  0  0  0  0  0  0  0  0  0  0  0
    2.7567    7.3107   25.7532 C   0  0  0  0  0  0  0  0  0  0  0  0
    2.0162    6.0336   26.1100 C   0  0  2  0  0  0  0  0  0  0  0  0
    1.3304    6.2396   27.4388 C   0  0  0  0  0  0  0  0  0  0  0  0
    1.7604    5.0227   28.2252 C   0  0  0  0  0  0  0  0  0  0  0  0
    3.0709    4.8451   27.8051 O   0  0  0  0  0  0  0  0  0  0  0  0
    2.9379    4.8975   26.4038 C   0  0  0  0  0  0  0  0  0  0  0  0
    3.5803    9.8908   25.1236 N   0  0  0  0  0  0  0  0  0  0  0  0
    3.9825   11.1163   24.8231 C   0  0  0  0  0  0  0  0  0  0  0  0
    5.6876   11.7692   24.4609 S   0  0  0  0  0  0  0  0  0  0  0  0
  1  2  1  0
  2  3  1  0
  3  4  1  0
  4  5  2  0
  4  6  1  0
  6  7  1  0
  7  8  2  0
  8  9  1  0
  9 10  2  0
 10 11  1  0
 11 12  1  0
 12 13  2  0
 13 14  1  0
 14 15  2  0
 15 16  1  0
 16 17  2  0
 11 18  2  0
 18 19  1  0
 19 20  1  0
 21 20  1  1
 21 22  1  0
 22 23  1  0
 23 24  1  0
 24 25  1  0
 18 26  1  0
 26 27  2  0
 27 28  1  0
 28  7  1  0
 27  9  1  0
 17 12  1  0
 25 21  1  0
M  END
>  <shape_align_shape_tanimoto>  (3) 
0.63618931199690598

>  <shape_align_color_tanimoto>  (3) 
0.139046739686224

>  <metric>  (3) 
combo

>  <metric_score>  (3) 
0.388

>  <template_pid>  (3) 
4MB9

>  <template_shape_score>  (3) 
0.636

>  <template_color_score>  (3) 
0.139

>  <template_combo_score>  (3) 
0.388

$$$$
