4X6P_shape_pose
     RDKit          3D

 40 45  0  0  0  0  0  0  0  0999 V2000
   -3.2178  -25.9740  -18.4463 N   0  0  0  0  0  0  0  0  0  0  0  0
   -2.2730  -25.8888  -17.3806 C   0  0  0  0  0  0  0  0  0  0  0  0
   -1.4558  -24.8562  -17.1036 N   0  0  0  0  0  0  0  0  0  0  0  0
   -0.7073  -25.1200  -16.0364 N   0  0  0  0  0  0  0  0  0  0  0  0
   -1.0375  -26.3536  -15.5996 C   0  0  0  0  0  0  0  0  0  0  0  0
   -0.5940  -27.1387  -14.5444 C   0  0  0  0  0  0  0  0  0  0  0  0
   -1.1072  -28.3978  -14.3076 C   0  0  0  0  0  0  0  0  0  0  0  0
   -0.5846  -29.1562  -13.1749 C   0  0  0  0  0  0  0  0  0  0  0  0
   -0.9273  -30.4150  -12.7352 C   0  0  0  0  0  0  0  0  0  0  0  0
   -0.1567  -30.6501  -11.6597 N   0  0  0  0  0  0  0  0  0  0  0  0
    0.6500  -29.6165  -11.3940 C   0  0  0  0  0  0  0  0  0  0  0  0
    1.6448  -29.3969  -10.3265 C   0  0  2  0  0  0  0  0  0  0  0  0
    1.3404  -30.1146   -9.0307 C   0  0  0  0  0  0  0  0  0  0  0  0
    0.0941  -29.7299   -8.3813 C   0  0  0  0  0  0  0  0  0  0  0  0
    0.1423  -28.6159   -7.5263 C   0  0  0  0  0  0  0  0  0  0  0  0
   -0.9774  -28.1748   -6.8527 C   0  0  0  0  0  0  0  0  0  0  0  0
   -2.1963  -28.8053   -6.9858 C   0  0  0  0  0  0  0  0  0  0  0  0
   -2.2633  -29.9006   -7.8203 C   0  0  0  0  0  0  0  0  0  0  0  0
   -1.1269  -30.3352   -8.4935 C   0  0  0  0  0  0  0  0  0  0  0  0
    1.6755  -27.9451  -10.0579 N   0  0  0  0  0  0  0  0  0  0  0  0
    2.8410  -27.1805  -10.2644 C   0  0  0  0  0  0  0  0  0  0  0  0
    3.8598  -27.8063  -10.6933 O   0  0  0  0  0  0  0  0  0  0  0  0
    2.9150  -25.7316  -10.0085 C   0  0  0  0  0  0  0  0  0  0  0  0
    1.9297  -25.0160   -9.5706 C   0  0  0  0  0  0  0  0  0  0  0  0
    1.8621  -23.6135   -9.2808 C   0  0  0  0  0  0  0  0  0  0  0  0
    0.6398  -23.1278   -8.7898 C   0  0  0  0  0  0  0  0  0  0  0  0
    0.4341  -21.8095   -8.4728 C   0  0  0  0  0  0  0  0  0  0  0  0
   -1.1179  -21.2844   -7.8661 Cl  0  0  0  0  0  0  0  0  0  0  0  0
    1.4324  -20.8797   -8.6226 C   0  0  0  0  0  0  0  0  0  0  0  0
    2.6379  -21.3273   -9.1011 C   0  0  0  0  0  0  0  0  0  0  0  0
    2.8504  -22.6841   -9.4277 C   0  0  0  0  0  0  0  0  0  0  0  0
    4.1604  -22.9419   -9.9093 N   0  0  0  0  0  0  0  0  0  0  0  0
    5.2669  -23.1861   -9.1526 C   0  0  0  0  0  0  0  0  0  0  0  0
    6.3095  -23.3300   -9.9669 N   0  0  0  0  0  0  0  0  0  0  0  0
    5.8840  -23.1828  -11.2030 N   0  0  0  0  0  0  0  0  0  0  0  0
    4.5890  -22.9478  -11.1878 N   0  0  0  0  0  0  0  0  0  0  0  0
    0.3695  -28.6863  -12.3552 N   0  0  0  0  0  0  0  0  0  0  0  0
   -2.0931  -28.9096  -15.1353 C   0  0  0  0  0  0  0  0  0  0  0  0
   -2.5338  -28.1166  -16.1925 C   0  0  0  0  0  0  0  0  0  0  0  0
   -2.0284  -26.8639  -16.4342 C   0  0  0  0  0  0  0  0  0  0  0  0
  1  2  1  0
  2  3  2  0
  3  4  1  0
  4  5  1  0
  5  6  2  0
  6  7  1  0
  7  8  1  0
  8  9  2  0
  9 10  1  0
 10 11  1  0
 11 12  1  0
 12 13  1  1
 13 14  1  0
 14 15  2  0
 15 16  1  0
 16 17  2  0
 17 18  1  0
 18 19  2  0
 12 20  1  0
 20 21  1  0
 21 22  2  0
 21 23  1  0
 23 24  2  0
 24 25  1  0
 25 26  2  0
 26 27  1  0
 27 28  1  0
 27 29  2  0
 29 30  1  0
 30 31  2  0
 31 32  1  0
 32 33  1  0
 33 34  2  0
 34 35  1  0
 35 36  2  0
 11 37  2  0
  7 38  2  0
 38 39  1  0
 39 40  2  0
 40  2  1  0
 40  5  1  0
 37  8  1  0
 19 14  1  0
 31 25  1  0
 36 32  1  0
M  END
>  <shape_align_shape_tanimoto>  (1) 
0.32874582941491659

>  <shape_align_color_tanimoto>  (1) 
0.014089757467941992

>  <metric>  (1) 
shape

>  <metric_score>  (1) 
0.329

>  <template_pid>  (1) 
4X6P

>  <template_shape_score>  (1) 
0.329

>  <template_color_score>  (1) 
0.014

>  <template_combo_score>  (1) 
0.171

$$$$
4X6P_color_pose
     RDKit          3D

 40 45  0  0  0  0  0  0  0  0999 V2000
    2.8762  -33.0136  -10.9086 N   0  0  0  0  0  0  0  0  0  0  0  0
    2.8894  -31.8141  -10.1417 C   0  0  0  0  0  0  0  0  0  0  0  0
    3.2872  -31.6646   -8.8644 N   0  0  0  0  0  0  0  0  0  0  0  0
    3.1611  -30.4119   -8.4803 N   0  0  0  0  0  0  0  0  0  0  0  0
    2.6650  -29.6967   -9.5264 C   0  0  0  0  0  0  0  0  0  0  0  0
    2.3305  -28.3725   -9.7207 C   0  0  0  0  0  0  0  0  0  0  0  0
    1.8329  -27.9011  -10.9187 C   0  0  0  0  0  0  0  0  0  0  0  0
    1.5129  -26.4798  -11.0121 C   0  0  0  0  0  0  0  0  0  0  0  0
    1.0084  -25.7616  -12.0763 C   0  0  0  0  0  0  0  0  0  0  0  0
    0.8837  -24.4667  -11.6619 N   0  0  0  0  0  0  0  0  0  0  0  0
    1.2902  -24.3556  -10.3866 C   0  0  0  0  0  0  0  0  0  0  0  0
    1.3016  -23.1038   -9.5865 C   0  0  2  0  0  0  0  0  0  0  0  0
   -0.0417  -22.8331   -8.9534 C   0  0  0  0  0  0  0  0  0  0  0  0
   -0.4390  -23.9397   -8.0431 C   0  0  0  0  0  0  0  0  0  0  0  0
   -1.1660  -24.9744   -8.6124 C   0  0  0  0  0  0  0  0  0  0  0  0
   -1.5903  -26.0554   -7.8744 C   0  0  0  0  0  0  0  0  0  0  0  0
   -1.2663  -26.0778   -6.5367 C   0  0  0  0  0  0  0  0  0  0  0  0
   -0.5397  -25.0426   -5.9703 C   0  0  0  0  0  0  0  0  0  0  0  0
   -0.1119  -23.9595   -6.6986 C   0  0  0  0  0  0  0  0  0  0  0  0
    1.8149  -21.9621  -10.2951 N   0  0  0  0  0  0  0  0  0  0  0  0
    3.0163  -21.3102   -9.9222 C   0  0  0  0  0  0  0  0  0  0  0  0
    3.6216  -21.7989   -8.9127 O   0  0  0  0  0  0  0  0  0  0  0  0
    3.5606  -20.1525  -10.6201 C   0  0  0  0  0  0  0  0  0  0  0  0
    3.0138  -19.5874  -11.6539 C   0  0  0  0  0  0  0  0  0  0  0  0
    3.5533  -18.4261  -12.3596 C   0  0  0  0  0  0  0  0  0  0  0  0
    4.7200  -17.7997  -12.0021 C   0  0  0  0  0  0  0  0  0  0  0  0
    5.1992  -16.6995  -12.6961 C   0  0  0  0  0  0  0  0  0  0  0  0
    6.6944  -15.9313  -12.2045 Cl  0  0  0  0  0  0  0  0  0  0  0  0
    4.5063  -16.2152  -13.7624 C   0  0  0  0  0  0  0  0  0  0  0  0
    3.3381  -16.8057  -14.1569 C   0  0  0  0  0  0  0  0  0  0  0  0
    2.8786  -17.8981  -13.4542 C   0  0  0  0  0  0  0  0  0  0  0  0
    1.6447  -18.4700  -13.9215 N   0  0  0  0  0  0  0  0  0  0  0  0
    0.4542  -18.5111  -13.2933 C   0  0  0  0  0  0  0  0  0  0  0  0
   -0.4073  -19.1453  -14.1161 N   0  0  0  0  0  0  0  0  0  0  0  0
    0.2218  -19.4944  -15.2317 N   0  0  0  0  0  0  0  0  0  0  0  0
    1.4627  -19.0726  -15.0855 N   0  0  0  0  0  0  0  0  0  0  0  0
    1.6735  -25.6032  -10.0037 N   0  0  0  0  0  0  0  0  0  0  0  0
    1.6497  -28.7570  -11.9844 C   0  0  0  0  0  0  0  0  0  0  0  0
    1.9838  -30.1038  -11.8051 C   0  0  0  0  0  0  0  0  0  0  0  0
    2.4808  -30.5635  -10.6020 C   0  0  0  0  0  0  0  0  0  0  0  0
  1  2  1  0
  2  3  2  0
  3  4  1  0
  4  5  1  0
  5  6  2  0
  6  7  1  0
  7  8  1  0
  8  9  2  0
  9 10  1  0
 10 11  1  0
 11 12  1  0
 12 13  1  6
 13 14  1  0
 14 15  2  0
 15 16  1  0
 16 17  2  0
 17 18  1  0
 18 19  2  0
 12 20  1  0
 20 21  1  0
 21 22  2  0
 21 23  1  0
 23 24  2  0
 24 25  1  0
 25 26  2  0
 26 27  1  0
 27 28  1  0
 27 29  2  0
 29 30  1  0
 30 31  2  0
 31 32  1  0
 32 33  1  0
 33 34  2  0
 34 35  1  0
 35 36  2  0
 11 37  2  0
  7 38  2  0
 38 39  1  0
 39 40  2  0
 40  2  1  0
 40  5  1  0
 37  8  1  0
 19 14  1  0
 31 25  1  0
 36 32  1  0
M  END
>  <shape_align_shape_tanimoto>  (2) 
0.28073546405458993

>  <shape_align_color_tanimoto>  (2) 
0.045505518180076289

>  <metric>  (2) 
color

>  <metric_score>  (2) 
0.046

>  <template_pid>  (2) 
4X6P

>  <template_shape_score>  (2) 
0.281

>  <template_color_score>  (2) 
0.046

>  <template_combo_score>  (2) 
0.163

$$$$
4X6P_combo_pose
     RDKit          3D

 40 45  0  0  0  0  0  0  0  0999 V2000
   -0.8208  -31.6464  -15.5341 N   0  0  0  0  0  0  0  0  0  0  0  0
   -0.9909  -30.2769  -15.1229 C   0  0  0  0  0  0  0  0  0  0  0  0
   -1.8120  -29.3536  -15.6405 N   0  0  0  0  0  0  0  0  0  0  0  0
   -1.6864  -28.2091  -14.9952 N   0  0  0  0  0  0  0  0  0  0  0  0
   -0.7720  -28.3409  -14.0242 C   0  0  0  0  0  0  0  0  0  0  0  0
   -0.2688  -27.4502  -13.0671 C   0  0  0  0  0  0  0  0  0  0  0  0
    0.6923  -27.8604  -12.1679 C   0  0  0  0  0  0  0  0  0  0  0  0
    1.2410  -26.9649  -11.1586 C   0  0  0  0  0  0  0  0  0  0  0  0
    2.2079  -27.3061  -10.2359 C   0  0  0  0  0  0  0  0  0  0  0  0
    2.4506  -26.2265   -9.4929 N   0  0  0  0  0  0  0  0  0  0  0  0
    1.6691  -25.1834   -9.9019 C   0  0  0  0  0  0  0  0  0  0  0  0
    1.6608  -23.8208   -9.3158 C   0  0  2  0  0  0  0  0  0  0  0  0
    0.4692  -23.6178   -8.4048 C   0  0  0  0  0  0  0  0  0  0  0  0
    0.4861  -22.2492   -7.8320 C   0  0  0  0  0  0  0  0  0  0  0  0
   -0.1225  -21.1653   -8.4216 C   0  0  0  0  0  0  0  0  0  0  0  0
   -0.0472  -19.9299   -7.8006 C   0  0  0  0  0  0  0  0  0  0  0  0
    0.6317  -19.8009   -6.6079 C   0  0  0  0  0  0  0  0  0  0  0  0
    1.2576  -20.8793   -5.9872 C   0  0  0  0  0  0  0  0  0  0  0  0
    1.1655  -22.0944   -6.6280 C   0  0  0  0  0  0  0  0  0  0  0  0
    1.6382  -22.7727  -10.2938 N   0  0  0  0  0  0  0  0  0  0  0  0
    2.6668  -21.7917  -10.4407 C   0  0  0  0  0  0  0  0  0  0  0  0
    3.6743  -21.8108   -9.6882 O   0  0  0  0  0  0  0  0  0  0  0  0
    2.5603  -20.7422  -11.4772 C   0  0  0  0  0  0  0  0  0  0  0  0
    3.4859  -19.8323  -11.6379 C   0  0  0  0  0  0  0  0  0  0  0  0
    3.5541  -18.7560  -12.5698 C   0  0  0  0  0  0  0  0  0  0  0  0
    4.7211  -17.9712  -12.5507 C   0  0  0  0  0  0  0  0  0  0  0  0
    4.9157  -16.9052  -13.3805 C   0  0  0  0  0  0  0  0  0  0  0  0
    6.3880  -15.9856  -13.2923 Cl  0  0  0  0  0  0  0  0  0  0  0  0
    3.9674  -16.5287  -14.2991 C   0  0  0  0  0  0  0  0  0  0  0  0
    2.8140  -17.2749  -14.3434 C   0  0  0  0  0  0  0  0  0  0  0  0
    2.6119  -18.3777  -13.4855 C   0  0  0  0  0  0  0  0  0  0  0  0
    1.3540  -19.0102  -13.6731 N   0  0  0  0  0  0  0  0  0  0  0  0
    1.0183  -19.9507  -14.6106 C   0  0  0  0  0  0  0  0  0  0  0  0
   -0.2794  -20.1839  -14.4011 N   0  0  0  0  0  0  0  0  0  0  0  0
   -0.7041  -19.4421  -13.4112 N   0  0  0  0  0  0  0  0  0  0  0  0
    0.2833  -18.7198  -12.9566 N   0  0  0  0  0  0  0  0  0  0  0  0
    0.9373  -25.6765  -10.9303 N   0  0  0  0  0  0  0  0  0  0  0  0
    1.1215  -29.1629  -12.2585 C   0  0  0  0  0  0  0  0  0  0  0  0
    0.6513  -30.0675  -13.1845 C   0  0  0  0  0  0  0  0  0  0  0  0
   -0.3228  -29.6481  -14.0944 C   0  0  0  0  0  0  0  0  0  0  0  0
  1  2  1  0
  2  3  2  0
  3  4  1  0
  4  5  1  0
  5  6  2  0
  6  7  1  0
  7  8  1  0
  8  9  2  0
  9 10  1  0
 10 11  1  0
 11 12  1  0
 12 13  1  1
 13 14  1  0
 14 15  2  0
 15 16  1  0
 16 17  2  0
 17 18  1  0
 18 19  2  0
 12 20  1  0
 20 21  1  0
 21 22  2  0
 21 23  1  0
 23 24  2  0
 24 25  1  0
 25 26  2  0
 26 27  1  0
 27 28  1  0
 27 29  2  0
 29 30  1  0
 30 31  2  0
 31 32  1  0
 32 33  1  0
 33 34  2  0
 34 35  1  0
 35 36  2  0
 11 37  2  0
  7 38  2  0
 38 39  1  0
 39 40  2  0
 40  2  1  0
 40  5  1  0
 37  8  1  0
 19 14  1  0
 31 25  1  0
 36 32  1  0
M  END
>  <shape_align_shape_tanimoto>  (3) 
0.3234555422737686

>  <shape_align_color_tanimoto>  (3) 
0.037575452821055282

>  <metric>  (3) 
combo

>  <metric_score>  (3) 
0.181

>  <template_pid>  (3) 
4X6P

>  <template_shape_score>  (3) 
0.323

>  <template_color_score>  (3) 
0.038

>  <template_combo_score>  (3) 
0.181

$$$$
