1EJN_shape_pose
     RDKit          3D

 25 28  0  0  0  0  0  0  0  0999 V2000
    1.1062  -22.9275   -7.6411 N   0  0  0  0  0  0  0  0  0  0  0  0
    0.7598  -23.8530   -8.6939 C   0  0  0  0  0  0  0  0  0  0  0  0
    1.1650  -23.7210   -9.8977 N   0  0  0  0  0  0  0  0  0  0  0  0
   -0.0671  -24.9676   -8.3951 N   0  0  0  0  0  0  0  0  0  0  0  0
    0.2353  -26.2756   -8.8259 C   0  0  0  0  0  0  0  0  0  0  0  0
   -0.7181  -27.2894   -8.6660 C   0  0  0  0  0  0  0  0  0  0  0  0
   -0.4721  -28.5880   -9.0575 C   0  0  0  0  0  0  0  0  0  0  0  0
    0.7344  -28.9432   -9.6274 C   0  0  0  0  0  0  0  0  0  0  0  0
    0.9434  -30.3591  -10.0304 C   0  0  0  0  0  0  0  0  0  0  0  0
    0.5193  -30.5858  -11.3995 N   0  0  0  0  0  0  0  0  0  0  0  0
   -0.0234  -29.5687  -12.2279 C   0  0  0  0  0  0  0  0  0  0  0  0
   -0.1573  -28.4190  -11.7972 O   0  0  0  0  0  0  0  0  0  0  0  0
   -0.4215  -29.8470  -13.5595 N   0  0  0  0  0  0  0  0  0  0  0  0
   -0.9746  -28.8452  -14.4281 C   0  0  2  0  0  0  0  0  0  0  0  0
   -0.0635  -27.6824  -14.6833 C   0  0  0  0  0  0  0  0  0  0  0  0
   -0.7475  -26.7141  -15.5974 C   0  0  1  0  0  0  0  0  0  0  0  0
   -0.9598  -27.3529  -16.9431 C   0  0  0  0  0  0  0  0  0  0  0  0
   -1.8888  -28.5330  -16.7443 C   0  0  2  0  0  0  0  0  0  0  0  0
   -3.2032  -28.0214  -16.1915 C   0  0  0  0  0  0  0  0  0  0  0  0
   -2.9554  -27.4053  -14.8556 C   0  0  2  0  0  0  0  0  0  0  0  0
   -2.0536  -26.2014  -15.0454 C   0  0  0  0  0  0  0  0  0  0  0  0
   -2.2645  -28.3231  -13.8751 C   0  0  0  0  0  0  0  0  0  0  0  0
   -1.2884  -29.4904  -15.7569 C   0  0  0  0  0  0  0  0  0  0  0  0
    1.6903  -27.9619   -9.7953 C   0  0  0  0  0  0  0  0  0  0  0  0
    1.4238  -26.6650   -9.3957 C   0  0  0  0  0  0  0  0  0  0  0  0
  1  2  1  0
  2  3  2  0
  2  4  1  0
  4  5  1  0
  5  6  2  0
  6  7  1  0
  7  8  2  0
  8  9  1  0
  9 10  1  0
 10 11  1  0
 11 12  2  0
 11 13  1  0
 14 13  1  1
 14 15  1  0
 16 15  1  1
 16 17  1  0
 18 17  1  1
 18 19  1  0
 20 19  1  6
 20 21  1  0
 20 22  1  0
 18 23  1  0
  8 24  1  0
 24 25  2  0
 25  5  1  0
 22 14  1  0
 23 14  1  0
 21 16  1  0
M  CHG  1   3   1
M  END
>  <shape_align_shape_tanimoto>  (1) 
0.24472982714216782

>  <shape_align_color_tanimoto>  (1) 
0.01457972583025093

>  <metric>  (1) 
shape

>  <metric_score>  (1) 
0.245

>  <template_pid>  (1) 
1EJN

>  <template_shape_score>  (1) 
0.245

>  <template_color_score>  (1) 
0.015

>  <template_combo_score>  (1) 
0.130

$$$$
1EJN_color_pose
     RDKit          3D

 25 28  0  0  0  0  0  0  0  0999 V2000
   -0.2408  -32.4101  -17.6024 N   0  0  0  0  0  0  0  0  0  0  0  0
    0.4766  -31.5335  -16.7158 C   0  0  0  0  0  0  0  0  0  0  0  0
    1.7508  -31.5167  -16.6286 N   0  0  0  0  0  0  0  0  0  0  0  0
   -0.2542  -30.6407  -15.8929 N   0  0  0  0  0  0  0  0  0  0  0  0
    0.0209  -30.4755  -14.5133 C   0  0  0  0  0  0  0  0  0  0  0  0
    0.8653  -31.2730  -13.7818 C   0  0  0  0  0  0  0  0  0  0  0  0
    1.1055  -31.0535  -12.4362 C   0  0  0  0  0  0  0  0  0  0  0  0
    0.4918  -30.0054  -11.7733 C   0  0  0  0  0  0  0  0  0  0  0  0
    0.7997  -29.8385  -10.3415 C   0  0  0  0  0  0  0  0  0  0  0  0
    1.9584  -28.9955  -10.1182 N   0  0  0  0  0  0  0  0  0  0  0  0
    1.9657  -27.5963  -10.2247 C   0  0  0  0  0  0  0  0  0  0  0  0
    0.9563  -26.9186  -10.5253 O   0  0  0  0  0  0  0  0  0  0  0  0
    3.1721  -26.8413   -9.9870 N   0  0  0  0  0  0  0  0  0  0  0  0
    3.2355  -25.4150  -10.0824 C   0  0  2  0  0  0  0  0  0  0  0  0
    4.6741  -24.9976   -9.7673 C   0  0  0  0  0  0  0  0  0  0  0  0
    4.7839  -23.5041   -9.6929 C   0  0  1  0  0  0  0  0  0  0  0  0
    4.4304  -22.9563  -11.0558 C   0  0  0  0  0  0  0  0  0  0  0  0
    3.0193  -23.3429  -11.3500 C   0  0  2  0  0  0  0  0  0  0  0  0
    2.0554  -22.8167  -10.3244 C   0  0  0  0  0  0  0  0  0  0  0  0
    2.4563  -23.3389   -8.9684 C   0  0  2  0  0  0  0  0  0  0  0  0
    3.8626  -22.9120   -8.6675 C   0  0  0  0  0  0  0  0  0  0  0  0
    2.3992  -24.8461   -8.9477 C   0  0  0  0  0  0  0  0  0  0  0  0
    2.8245  -24.8494  -11.4025 C   0  0  0  0  0  0  0  0  0  0  0  0
   -0.3615  -29.1903  -12.4860 C   0  0  0  0  0  0  0  0  0  0  0  0
   -0.5853  -29.4265  -13.8204 C   0  0  0  0  0  0  0  0  0  0  0  0
  1  2  1  0
  2  3  2  0
  2  4  1  0
  4  5  1  0
  5  6  2  0
  6  7  1  0
  7  8  2  0
  8  9  1  0
  9 10  1  0
 10 11  1  0
 11 12  2  0
 11 13  1  0
 14 13  1  6
 14 15  1  0
 16 15  1  6
 16 17  1  0
 18 17  1  1
 18 19  1  0
 20 19  1  6
 20 21  1  0
 20 22  1  0
 18 23  1  0
  8 24  1  0
 24 25  2  0
 25  5  1  0
 22 14  1  0
 23 14  1  0
 21 16  1  0
M  CHG  1   3   1
M  END
>  <shape_align_shape_tanimoto>  (2) 
0.22732335367424772

>  <shape_align_color_tanimoto>  (2) 
0.091329400829554278

>  <metric>  (2) 
color

>  <metric_score>  (2) 
0.091

>  <template_pid>  (2) 
1EJN

>  <template_shape_score>  (2) 
0.227

>  <template_color_score>  (2) 
0.091

>  <template_combo_score>  (2) 
0.159

$$$$
1EJN_combo_pose
     RDKit          3D

 25 28  0  0  0  0  0  0  0  0999 V2000
   -0.2408  -32.4101  -17.6024 N   0  0  0  0  0  0  0  0  0  0  0  0
    0.4766  -31.5335  -16.7158 C   0  0  0  0  0  0  0  0  0  0  0  0
    1.7508  -31.5167  -16.6286 N   0  0  0  0  0  0  0  0  0  0  0  0
   -0.2542  -30.6407  -15.8929 N   0  0  0  0  0  0  0  0  0  0  0  0
    0.0209  -30.4755  -14.5133 C   0  0  0  0  0  0  0  0  0  0  0  0
    0.8653  -31.2730  -13.7818 C   0  0  0  0  0  0  0  0  0  0  0  0
    1.1055  -31.0535  -12.4362 C   0  0  0  0  0  0  0  0  0  0  0  0
    0.4918  -30.0054  -11.7733 C   0  0  0  0  0  0  0  0  0  0  0  0
    0.7997  -29.8385  -10.3415 C   0  0  0  0  0  0  0  0  0  0  0  0
    1.9584  -28.9955  -10.1182 N   0  0  0  0  0  0  0  0  0  0  0  0
    1.9657  -27.5963  -10.2247 C   0  0  0  0  0  0  0  0  0  0  0  0
    0.9563  -26.9186  -10.5253 O   0  0  0  0  0  0  0  0  0  0  0  0
    3.1721  -26.8413   -9.9870 N   0  0  0  0  0  0  0  0  0  0  0  0
    3.2355  -25.4150  -10.0824 C   0  0  2  0  0  0  0  0  0  0  0  0
    4.6741  -24.9976   -9.7673 C   0  0  0  0  0  0  0  0  0  0  0  0
    4.7839  -23.5041   -9.6929 C   0  0  1  0  0  0  0  0  0  0  0  0
    4.4304  -22.9563  -11.0558 C   0  0  0  0  0  0  0  0  0  0  0  0
    3.0193  -23.3429  -11.3500 C   0  0  2  0  0  0  0  0  0  0  0  0
    2.0554  -22.8167  -10.3244 C   0  0  0  0  0  0  0  0  0  0  0  0
    2.4563  -23.3389   -8.9684 C   0  0  2  0  0  0  0  0  0  0  0  0
    3.8626  -22.9120   -8.6675 C   0  0  0  0  0  0  0  0  0  0  0  0
    2.3992  -24.8461   -8.9477 C   0  0  0  0  0  0  0  0  0  0  0  0
    2.8245  -24.8494  -11.4025 C   0  0  0  0  0  0  0  0  0  0  0  0
   -0.3615  -29.1903  -12.4860 C   0  0  0  0  0  0  0  0  0  0  0  0
   -0.5853  -29.4265  -13.8204 C   0  0  0  0  0  0  0  0  0  0  0  0
  1  2  1  0
  2  3  2  0
  2  4  1  0
  4  5  1  0
  5  6  2  0
  6  7  1  0
  7  8  2  0
  8  9  1  0
  9 10  1  0
 10 11  1  0
 11 12  2  0
 11 13  1  0
 14 13  1  6
 14 15  1  0
 16 15  1  6
 16 17  1  0
 18 17  1  1
 18 19  1  0
 20 19  1  6
 20 21  1  0
 20 22  1  0
 18 23  1  0
  8 24  1  0
 24 25  2  0
 25  5  1  0
 22 14  1  0
 23 14  1  0
 21 16  1  0
M  CHG  1   3   1
M  END
>  <shape_align_shape_tanimoto>  (3) 
0.22732335367424772

>  <shape_align_color_tanimoto>  (3) 
0.091329400829554278

>  <metric>  (3) 
combo

>  <metric_score>  (3) 
0.159

>  <template_pid>  (3) 
1EJN

>  <template_shape_score>  (3) 
0.227

>  <template_color_score>  (3) 
0.091

>  <template_combo_score>  (3) 
0.159

$$$$
