4D8C_shape_pose
     RDKit          3D

 40 42  0  0  0  0  0  0  0  0999 V2000
   24.9949   13.6129    3.4438 C   0  0  0  0  0  0  0  0  0  0  0  0
   23.6609   13.9759    2.8789 C   0  0  0  0  0  0  0  0  0  0  0  0
   23.0350   14.9381    3.6335 O   0  0  0  0  0  0  0  0  0  0  0  0
   23.7677   16.0942    3.6978 C   0  0  0  0  0  0  0  0  0  0  0  0
   22.9721   17.1646    4.5086 C   0  0  1  0  0  0  0  0  0  0  0  0
   22.7689   16.9301    5.7827 O   0  0  0  0  0  0  0  0  0  0  0  0
   22.6310   16.2152    6.8711 C   0  0  0  0  0  0  0  0  0  0  0  0
   22.9025   14.8700    6.9850 C   0  0  0  0  0  0  0  0  0  0  0  0
   22.7380   14.1444    8.1543 C   0  0  0  0  0  0  0  0  0  0  0  0
   23.0926   12.7071    8.0793 C   0  0  0  0  0  0  0  0  0  0  0  0
   24.5646   12.5341    8.0511 C   0  0  2  0  0  0  0  0  0  0  0  0
   25.0108   11.0685    7.9215 C   0  0  0  0  0  0  0  0  0  0  0  0
   26.7789   11.1658    7.6061 S   0  0  0  0  0  0  0  0  0  0  0  0
   26.9879   11.1936    6.1065 O   0  0  0  0  0  0  0  0  0  0  0  0
   27.3778    9.8784    8.1409 O   0  0  0  0  0  0  0  0  0  0  0  0
   27.5426   12.5458    8.3739 C   0  0  0  0  0  0  0  0  0  0  0  0
   26.5873   13.6947    8.6721 C   0  0  2  0  0  0  0  0  0  0  0  0
   27.2232   14.6148    9.5686 N   0  0  0  0  0  0  0  0  0  0  0  0
   26.5528   15.8787    9.6511 C   0  0  0  0  0  0  0  0  0  0  0  0
   27.3869   16.9914   10.1819 C   0  0  0  0  0  0  0  0  0  0  0  0
   27.4437   17.1896   11.5511 C   0  0  0  0  0  0  0  0  0  0  0  0
   28.1946   18.2211   12.0856 C   0  0  0  0  0  0  0  0  0  0  0  0
   28.8959   19.0657   11.2592 C   0  0  0  0  0  0  0  0  0  0  0  0
   28.8630   18.8987    9.8841 C   0  0  0  0  0  0  0  0  0  0  0  0
   29.6157   19.8293    9.0319 C   0  0  0  0  0  0  0  0  0  0  0  0
   28.7068   21.0076    8.6447 C   0  0  0  0  0  0  0  0  0  0  0  0
   30.2483   19.1849    7.8198 C   0  0  0  0  0  0  0  0  0  0  0  0
   30.7267   20.4427    9.8593 C   0  0  0  0  0  0  0  0  0  0  0  0
   28.0925   17.8441    9.3812 C   0  0  0  0  0  0  0  0  0  0  0  0
   25.3246   13.0509    9.2267 C   0  0  1  0  0  0  0  0  0  0  0  0
   24.5925   13.8616   10.0072 O   0  0  0  0  0  0  0  0  0  0  0  0
   22.2738   14.8060    9.2600 C   0  0  0  0  0  0  0  0  0  0  0  0
   21.9761   16.1762    9.2175 C   0  0  0  0  0  0  0  0  0  0  0  0
   21.5165   16.7942   10.3408 F   0  0  0  0  0  0  0  0  0  0  0  0
   22.1600   16.8395    8.0374 C   0  0  0  0  0  0  0  0  0  0  0  0
   21.8431   18.2449    8.0338 N   0  0  0  0  0  0  0  0  0  0  0  0
   23.4357   18.4967    4.0826 C   0  0  0  0  0  0  0  0  0  0  0  0
   23.2111   18.6955    2.7240 F   0  0  0  0  0  0  0  0  0  0  0  0
   24.8046   18.6827    4.2617 F   0  0  0  0  0  0  0  0  0  0  0  0
   22.8124   19.4711    4.8459 F   0  0  0  0  0  0  0  0  0  0  0  0
  1  2  1  0
  2  3  1  0
  3  4  1  0
  5  4  1  1
  5  6  1  0
  6  7  1  0
  7  8  2  0
  8  9  1  0
  9 10  1  0
 11 10  1  1
 11 12  1  0
 12 13  1  0
 13 14  2  0
 13 15  2  0
 13 16  1  0
 16 17  1  0
 17 18  1  1
 18 19  1  0
 19 20  1  0
 20 21  2  0
 21 22  1  0
 22 23  2  0
 23 24  1  0
 24 25  1  0
 25 26  1  0
 25 27  1  0
 25 28  1  0
 24 29  2  0
 17 30  1  0
 30 31  1  6
  9 32  2  0
 32 33  1  0
 33 34  1  0
 33 35  2  0
 35 36  1  0
  5 37  1  0
 37 38  1  0
 37 39  1  0
 37 40  1  0
 35  7  1  0
 30 11  1  0
 29 20  1  0
M  CHG  1  18   1
M  END
>  <shape_align_shape_tanimoto>  (1) 
0.53648966810691279

>  <shape_align_color_tanimoto>  (1) 
0.012863293826031323

>  <metric>  (1) 
shape

>  <metric_score>  (1) 
0.536

>  <template_pid>  (1) 
4D8C

>  <template_shape_score>  (1) 
0.536

>  <template_color_score>  (1) 
0.013

>  <template_combo_score>  (1) 
0.275

$$$$
4D8C_color_pose
     RDKit          3D

 40 42  0  0  0  0  0  0  0  0999 V2000
   21.5021   15.2745   12.3713 C   0  0  0  0  0  0  0  0  0  0  0  0
   21.5672   15.1395   10.8472 C   0  0  0  0  0  0  0  0  0  0  0  0
   21.2346   16.3227   10.2342 O   0  0  0  0  0  0  0  0  0  0  0  0
   21.2235   16.2934    8.8691 C   0  0  0  0  0  0  0  0  0  0  0  0
   22.4879   15.9974    8.1538 C   0  0  1  0  0  0  0  0  0  0  0  0
   23.1022   14.7815    8.3682 O   0  0  0  0  0  0  0  0  0  0  0  0
   24.4544   14.5279    8.5266 C   0  0  0  0  0  0  0  0  0  0  0  0
   25.4332   15.4928    8.4889 C   0  0  0  0  0  0  0  0  0  0  0  0
   26.7859   15.1865    8.6545 C   0  0  0  0  0  0  0  0  0  0  0  0
   27.8205   16.2222    8.6109 C   0  0  0  0  0  0  0  0  0  0  0  0
   28.1041   16.8244    9.9798 C   0  0  2  0  0  0  0  0  0  0  0  0
   26.8067   17.4280   10.4590 C   0  0  0  0  0  0  0  0  0  0  0  0
   27.1418   18.3292   11.9364 S   0  0  0  0  0  0  0  0  0  0  0  0
   26.5063   17.5266   13.0694 O   0  0  0  0  0  0  0  0  0  0  0  0
   26.4038   19.6395   11.9671 O   0  0  0  0  0  0  0  0  0  0  0  0
   28.8724   18.5392   12.2495 C   0  0  0  0  0  0  0  0  0  0  0  0
   29.7730   18.2847   11.1114 C   0  0  2  0  0  0  0  0  0  0  0  0
   30.9169   19.0684   10.9094 N   0  0  0  0  0  0  0  0  0  0  0  0
   30.9081   20.4624   10.8717 C   0  0  0  0  0  0  0  0  0  0  0  0
   29.9173   21.1383   10.0157 C   0  0  0  0  0  0  0  0  0  0  0  0
   28.6833   21.5772   10.4525 C   0  0  0  0  0  0  0  0  0  0  0  0
   27.7652   22.2006    9.6349 C   0  0  0  0  0  0  0  0  0  0  0  0
   28.0521   22.4181    8.3039 C   0  0  0  0  0  0  0  0  0  0  0  0
   29.2797   21.9917    7.8311 C   0  0  0  0  0  0  0  0  0  0  0  0
   29.5604   22.2386    6.3920 C   0  0  0  0  0  0  0  0  0  0  0  0
   29.1217   21.0992    5.5229 C   0  0  0  0  0  0  0  0  0  0  0  0
   28.8918   23.4866    5.8649 C   0  0  0  0  0  0  0  0  0  0  0  0
   31.0546   22.4145    6.2297 C   0  0  0  0  0  0  0  0  0  0  0  0
   30.1887   21.3692    8.6607 C   0  0  0  0  0  0  0  0  0  0  0  0
   29.0299   18.0365    9.7858 C   0  0  1  0  0  0  0  0  0  0  0  0
   29.9988   17.6196    8.8591 O   0  0  0  0  0  0  0  0  0  0  0  0
   27.1561   13.8562    8.8654 C   0  0  0  0  0  0  0  0  0  0  0  0
   26.1806   12.8904    8.9036 C   0  0  0  0  0  0  0  0  0  0  0  0
   26.5061   11.5728    9.1083 F   0  0  0  0  0  0  0  0  0  0  0  0
   24.8293   13.2078    8.7366 C   0  0  0  0  0  0  0  0  0  0  0  0
   23.8504   12.1570    8.7858 N   0  0  0  0  0  0  0  0  0  0  0  0
   22.1374   16.0762    6.6415 C   0  0  0  0  0  0  0  0  0  0  0  0
   23.2528   15.8156    5.8960 F   0  0  0  0  0  0  0  0  0  0  0  0
   21.5567   17.2810    6.3320 F   0  0  0  0  0  0  0  0  0  0  0  0
   21.2184   15.0730    6.4102 F   0  0  0  0  0  0  0  0  0  0  0  0
  1  2  1  0
  2  3  1  0
  3  4  1  0
  5  4  1  1
  5  6  1  0
  6  7  1  0
  7  8  2  0
  8  9  1  0
  9 10  1  0
 11 10  1  6
 11 12  1  0
 12 13  1  0
 13 14  2  0
 13 15  2  0
 13 16  1  0
 16 17  1  0
 17 18  1  6
 18 19  1  0
 19 20  1  0
 20 21  2  0
 21 22  1  0
 22 23  2  0
 23 24  1  0
 24 25  1  0
 25 26  1  0
 25 27  1  0
 25 28  1  0
 24 29  2  0
 17 30  1  0
 30 31  1  6
  9 32  2  0
 32 33  1  0
 33 34  1  0
 33 35  2  0
 35 36  1  0
  5 37  1  0
 37 38  1  0
 37 39  1  0
 37 40  1  0
 35  7  1  0
 30 11  1  0
 29 20  1  0
M  CHG  1  18   1
M  END
>  <shape_align_shape_tanimoto>  (2) 
0.46905561209485619

>  <shape_align_color_tanimoto>  (2) 
0.10172860881031427

>  <metric>  (2) 
color

>  <metric_score>  (2) 
0.102

>  <template_pid>  (2) 
4D8C

>  <template_shape_score>  (2) 
0.469

>  <template_color_score>  (2) 
0.102

>  <template_combo_score>  (2) 
0.285

$$$$
4D8C_combo_pose
     RDKit          3D

 40 42  0  0  0  0  0  0  0  0999 V2000
   20.9779   20.6676    9.8367 C   0  0  0  0  0  0  0  0  0  0  0  0
   21.5172   20.6342   11.2080 C   0  0  0  0  0  0  0  0  0  0  0  0
   21.3035   19.5768   11.9747 O   0  0  0  0  0  0  0  0  0  0  0  0
   21.7421   18.3584   11.6588 C   0  0  0  0  0  0  0  0  0  0  0  0
   21.0366   17.6513   10.5324 C   0  0  1  0  0  0  0  0  0  0  0  0
   21.6468   16.4261   10.2429 O   0  0  0  0  0  0  0  0  0  0  0  0
   22.0571   15.8356    9.1086 C   0  0  0  0  0  0  0  0  0  0  0  0
   22.6412   14.5600    9.2433 C   0  0  0  0  0  0  0  0  0  0  0  0
   23.1047   13.8435    8.1692 C   0  0  0  0  0  0  0  0  0  0  0  0
   23.7469   12.5159    8.2629 C   0  0  0  0  0  0  0  0  0  0  0  0
   25.2274   12.4860    8.2174 C   0  0  2  0  0  0  0  0  0  0  0  0
   25.7601   11.0511    8.3290 C   0  0  0  0  0  0  0  0  0  0  0  0
   27.5151   11.1674    8.5234 S   0  0  0  0  0  0  0  0  0  0  0  0
   27.9299   10.8568    9.9491 O   0  0  0  0  0  0  0  0  0  0  0  0
   28.1585   10.1106    7.6714 O   0  0  0  0  0  0  0  0  0  0  0  0
   28.1363   12.7439    8.0139 C   0  0  0  0  0  0  0  0  0  0  0  0
   27.2174   13.8702    8.4003 C   0  0  2  0  0  0  0  0  0  0  0  0
   27.9033   14.8849    9.1751 N   0  0  0  0  0  0  0  0  0  0  0  0
   27.5129   16.2204    8.7507 C   0  0  0  0  0  0  0  0  0  0  0  0
   27.8536   17.2431    9.7485 C   0  0  0  0  0  0  0  0  0  0  0  0
   26.9935   17.6340   10.7721 C   0  0  0  0  0  0  0  0  0  0  0  0
   27.4243   18.6059   11.6508 C   0  0  0  0  0  0  0  0  0  0  0  0
   28.6670   19.2048   11.5584 C   0  0  0  0  0  0  0  0  0  0  0  0
   29.5183   18.8186   10.5460 C   0  0  0  0  0  0  0  0  0  0  0  0
   30.8692   19.3868   10.3469 C   0  0  0  0  0  0  0  0  0  0  0  0
   30.6835   20.5894    9.4159 C   0  0  0  0  0  0  0  0  0  0  0  0
   31.8610   18.4329    9.7632 C   0  0  0  0  0  0  0  0  0  0  0  0
   31.4187   19.9540   11.6378 C   0  0  0  0  0  0  0  0  0  0  0  0
   29.1147   17.8368    9.6379 C   0  0  0  0  0  0  0  0  0  0  0  0
   26.0067   13.3174    9.1440 C   0  0  1  0  0  0  0  0  0  0  0  0
   25.3033   14.3269    9.7282 O   0  0  0  0  0  0  0  0  0  0  0  0
   23.0070   14.3730    6.8724 C   0  0  0  0  0  0  0  0  0  0  0  0
   22.4401   15.6163    6.7169 C   0  0  0  0  0  0  0  0  0  0  0  0
   22.3473   16.1254    5.4595 F   0  0  0  0  0  0  0  0  0  0  0  0
   21.9762   16.3267    7.8260 C   0  0  0  0  0  0  0  0  0  0  0  0
   21.4120   17.5977    7.5405 N   0  0  0  0  0  0  0  0  0  0  0  0
   19.6217   17.3700   11.0955 C   0  0  0  0  0  0  0  0  0  0  0  0
   18.8342   16.7320   10.1741 F   0  0  0  0  0  0  0  0  0  0  0  0
   19.0661   18.5644   11.4315 F   0  0  0  0  0  0  0  0  0  0  0  0
   19.7365   16.6412   12.2699 F   0  0  0  0  0  0  0  0  0  0  0  0
  1  2  1  0
  2  3  1  0
  3  4  1  0
  5  4  1  1
  5  6  1  0
  6  7  1  0
  7  8  2  0
  8  9  1  0
  9 10  1  0
 11 10  1  1
 11 12  1  0
 12 13  1  0
 13 14  2  0
 13 15  2  0
 13 16  1  0
 16 17  1  0
 17 18  1  1
 18 19  1  0
 19 20  1  0
 20 21  2  0
 21 22  1  0
 22 23  2  0
 23 24  1  0
 24 25  1  0
 25 26  1  0
 25 27  1  0
 25 28  1  0
 24 29  2  0
 17 30  1  0
 30 31  1  6
  9 32  2  0
 32 33  1  0
 33 34  1  0
 33 35  2  0
 35 36  1  0
  5 37  1  0
 37 38  1  0
 37 39  1  0
 37 40  1  0
 35  7  1  0
 30 11  1  0
 29 20  1  0
M  CHG  1  18   1
M  END
>  <shape_align_shape_tanimoto>  (3) 
0.53107323201881751

>  <shape_align_color_tanimoto>  (3) 
0.051171764621370186

>  <metric>  (3) 
combo

>  <metric_score>  (3) 
0.291

>  <template_pid>  (3) 
4D8C

>  <template_shape_score>  (3) 
0.531

>  <template_color_score>  (3) 
0.051

>  <template_combo_score>  (3) 
0.291

$$$$
