6UWV_shape_pose
     RDKit          3D

 28 32  0  0  0  0  0  0  0  0999 V2000
   29.5616   20.0033    9.9593 C   0  0  0  0  0  0  0  0  0  0  0  0
   28.5898   19.0720   10.6480 C   0  0  2  0  0  0  0  0  0  0  0  0
   29.1574   17.8490   11.2239 C   0  0  0  0  0  0  0  0  0  0  0  0
   28.2689   17.7679    9.9806 C   0  0  1  0  0  0  0  0  0  0  0  0
   26.9345   17.1125   10.2571 C   0  0  0  0  0  0  0  0  0  0  0  0
   26.6862   15.9486    9.6331 O   0  0  0  0  0  0  0  0  0  0  0  0
   27.4463   14.8554    9.8034 C   0  0  0  0  0  0  0  0  0  0  0  0
   28.8771   14.8841    9.4285 C   0  0  0  0  0  0  0  0  0  0  0  0
   27.3846   14.3230   11.2483 C   0  0  0  0  0  0  0  0  0  0  0  0
   26.7877   13.7296    8.9840 C   0  0  2  0  0  0  0  0  0  0  0  0
   26.6767   14.0182    7.4717 C   0  0  0  0  0  0  0  0  0  0  0  0
   25.4748   13.9700    8.3812 C   0  0  1  0  0  0  0  0  0  0  0  0
   24.4240   12.9122    8.2328 C   0  0  2  0  0  0  0  0  0  0  0  0
   23.2434   13.6166    7.5372 C   0  0  0  0  0  0  0  0  0  0  0  0
   22.6760   14.4090    8.5995 N   0  0  0  0  0  0  0  0  0  0  0  0
   22.2245   15.7500    8.5220 C   0  0  0  0  0  0  0  0  0  0  0  0
   22.3047   16.4180    7.3553 N   0  0  0  0  0  0  0  0  0  0  0  0
   21.8806   17.7063    7.2457 C   0  0  0  0  0  0  0  0  0  0  0  0
   21.3607   18.3030    8.3911 C   0  0  0  0  0  0  0  0  0  0  0  0
   21.2735   17.6256    9.5961 C   0  0  0  0  0  0  0  0  0  0  0  0
   21.7160   16.3581    9.6105 N   0  0  0  0  0  0  0  0  0  0  0  0
   22.6538   13.5644    9.7786 C   0  0  0  0  0  0  0  0  0  0  0  0
   23.8434   12.6335    9.5761 C   0  0  1  0  0  0  0  0  0  0  0  0
   23.3510   11.2669    9.8567 C   0  0  0  0  0  0  0  0  0  0  0  0
   22.4463   10.6978    8.3575 S   0  0  0  0  0  0  0  0  0  0  0  0
   23.7859   10.8217    7.1345 C   0  0  0  0  0  0  0  0  0  0  0  0
   23.8034   10.0749    6.0870 N   0  0  0  0  0  0  0  0  0  0  0  0
   24.7853   11.7914    7.4356 N   0  0  0  0  0  0  0  0  0  0  0  0
  2  1  1  6
  2  3  1  0
  3  4  1  0
  4  5  1  1
  5  6  1  0
  6  7  1  0
  7  8  1  0
  7  9  1  0
 10  7  1  1
 10 11  1  0
 12 11  1  6
 12 13  1  0
 13 14  1  6
 14 15  1  0
 15 16  1  0
 16 17  2  0
 17 18  1  0
 18 19  2  0
 19 20  1  0
 20 21  2  0
 15 22  1  0
 23 22  1  6
 23 24  1  0
 24 25  1  0
 25 26  1  0
 26 27  2  0
 26 28  1  0
  4  2  1  0
 12 10  1  0
 23 13  1  0
 28 13  1  0
 21 16  1  0
M  CHG  1  27   1
M  END
>  <shape_align_shape_tanimoto>  (1) 
0.70775929335951437

>  <shape_align_color_tanimoto>  (1) 
0.045485885585952027

>  <metric>  (1) 
shape

>  <metric_score>  (1) 
0.708

>  <template_pid>  (1) 
6UWV

>  <template_shape_score>  (1) 
0.708

>  <template_color_score>  (1) 
0.045

>  <template_combo_score>  (1) 
0.377

$$$$
6UWV_color_pose
     RDKit          3D

 28 32  0  0  0  0  0  0  0  0999 V2000
   31.5907   20.3017   10.8242 C   0  0  0  0  0  0  0  0  0  0  0  0
   30.4200   19.3609   10.8698 C   0  0  2  0  0  0  0  0  0  0  0  0
   30.7280   17.9923   11.4187 C   0  0  0  0  0  0  0  0  0  0  0  0
   30.3414   18.1921    9.9620 C   0  0  1  0  0  0  0  0  0  0  0  0
   28.9329   17.7024    9.5328 C   0  0  0  0  0  0  0  0  0  0  0  0
   28.2853   17.3662   10.6633 O   0  0  0  0  0  0  0  0  0  0  0  0
   27.0117   16.9273   10.6734 C   0  0  0  0  0  0  0  0  0  0  0  0
   26.6604   16.6280   12.1433 C   0  0  0  0  0  0  0  0  0  0  0  0
   26.0251   18.0324   10.2722 C   0  0  0  0  0  0  0  0  0  0  0  0
   26.7236   15.7027    9.8512 C   0  0  2  0  0  0  0  0  0  0  0  0
   26.9544   15.8110    8.3349 C   0  0  0  0  0  0  0  0  0  0  0  0
   25.6130   15.6072    8.9090 C   0  0  1  0  0  0  0  0  0  0  0  0
   24.8313   14.3184    8.7226 C   0  0  2  0  0  0  0  0  0  0  0  0
   23.7967   14.6695    7.6325 C   0  0  0  0  0  0  0  0  0  0  0  0
   22.8102   15.3419    8.4494 N   0  0  0  0  0  0  0  0  0  0  0  0
   21.9840   16.4258    7.9834 C   0  0  0  0  0  0  0  0  0  0  0  0
   21.0747   17.0182    8.7927 N   0  0  0  0  0  0  0  0  0  0  0  0
   20.2824   18.0335    8.4002 C   0  0  0  0  0  0  0  0  0  0  0  0
   20.4050   18.4995    7.0904 C   0  0  0  0  0  0  0  0  0  0  0  0
   21.3291   17.9007    6.2606 C   0  0  0  0  0  0  0  0  0  0  0  0
   22.0903   16.8890    6.7173 N   0  0  0  0  0  0  0  0  0  0  0  0
   22.7486   14.8048    9.7797 C   0  0  0  0  0  0  0  0  0  0  0  0
   24.0331   14.0505    9.9273 C   0  0  1  0  0  0  0  0  0  0  0  0
   23.7275   12.6247   10.2733 C   0  0  0  0  0  0  0  0  0  0  0  0
   23.4512   11.7055    8.7114 S   0  0  0  0  0  0  0  0  0  0  0  0
   24.9900   12.0506    7.8139 C   0  0  0  0  0  0  0  0  0  0  0  0
   25.4492   11.2560    6.9230 N   0  0  0  0  0  0  0  0  0  0  0  0
   25.6377   13.2770    8.1921 N   0  0  0  0  0  0  0  0  0  0  0  0
  2  1  1  6
  2  3  1  0
  3  4  1  0
  4  5  1  1
  5  6  1  0
  6  7  1  0
  7  8  1  0
  7  9  1  0
 10  7  1  1
 10 11  1  0
 12 11  1  6
 12 13  1  0
 13 14  1  6
 14 15  1  0
 15 16  1  0
 16 17  2  0
 17 18  1  0
 18 19  2  0
 19 20  1  0
 20 21  2  0
 15 22  1  0
 23 22  1  6
 23 24  1  0
 24 25  1  0
 25 26  1  0
 26 27  2  0
 26 28  1  0
  4  2  1  0
 12 10  1  0
 23 13  1  0
 28 13  1  0
 21 16  1  0
M  CHG  1  27   1
M  END
>  <shape_align_shape_tanimoto>  (2) 
0.58634599355811146

>  <shape_align_color_tanimoto>  (2) 
0.13293744519426301

>  <metric>  (2) 
color

>  <metric_score>  (2) 
0.133

>  <template_pid>  (2) 
6UWV

>  <template_shape_score>  (2) 
0.586

>  <template_color_score>  (2) 
0.133

>  <template_combo_score>  (2) 
0.360

$$$$
6UWV_combo_pose
     RDKit          3D

 28 32  0  0  0  0  0  0  0  0999 V2000
   18.3551   14.1100   10.9749 C   0  0  0  0  0  0  0  0  0  0  0  0
   19.7922   14.5369   10.6443 C   0  0  2  0  0  0  0  0  0  0  0  0
   20.5707   14.9369   11.8268 C   0  0  0  0  0  0  0  0  0  0  0  0
   20.1355   15.9537   10.7651 C   0  0  1  0  0  0  0  0  0  0  0  0
   21.2764   16.6041   10.0649 C   0  0  0  0  0  0  0  0  0  0  0  0
   21.1713   16.5052    8.6894 O   0  0  0  0  0  0  0  0  0  0  0  0
   22.2132   17.0151    7.9749 C   0  0  0  0  0  0  0  0  0  0  0  0
   21.7370   17.0563    6.4857 C   0  0  0  0  0  0  0  0  0  0  0  0
   22.7170   18.3547    8.3428 C   0  0  0  0  0  0  0  0  0  0  0  0
   23.3440   15.9805    7.8812 C   0  0  2  0  0  0  0  0  0  0  0  0
   22.9358   14.7013    7.1253 C   0  0  0  0  0  0  0  0  0  0  0  0
   23.3040   14.6923    8.5500 C   0  0  1  0  0  0  0  0  0  0  0  0
   24.5550   13.9951    9.0445 C   0  0  2  0  0  0  0  0  0  0  0  0
   25.1780   14.9349   10.0580 C   0  0  0  0  0  0  0  0  0  0  0  0
   26.5208   15.2279    9.6009 N   0  0  0  0  0  0  0  0  0  0  0  0
   27.2904   16.3866    9.8957 C   0  0  0  0  0  0  0  0  0  0  0  0
   28.5256   16.5108    9.3933 N   0  0  0  0  0  0  0  0  0  0  0  0
   29.2643   17.5943    9.6601 C   0  0  0  0  0  0  0  0  0  0  0  0
   28.7572   18.6117   10.4669 C   0  0  0  0  0  0  0  0  0  0  0  0
   27.4856   18.4249   10.9510 C   0  0  0  0  0  0  0  0  0  0  0  0
   26.7544   17.3443   10.6824 N   0  0  0  0  0  0  0  0  0  0  0  0
   26.9125   14.0983    8.7844 C   0  0  0  0  0  0  0  0  0  0  0  0
   25.6175   13.8497    8.0340 C   0  0  1  0  0  0  0  0  0  0  0  0
   25.7327   12.6297    7.2370 C   0  0  0  0  0  0  0  0  0  0  0  0
   24.3772   11.4474    7.3595 S   0  0  0  0  0  0  0  0  0  0  0  0
   23.7148   11.6518    9.0283 C   0  0  0  0  0  0  0  0  0  0  0  0
   22.8922   10.7916    9.5191 N   0  0  0  0  0  0  0  0  0  0  0  0
   24.1590   12.8050    9.7408 N   0  0  0  0  0  0  0  0  0  0  0  0
  2  1  1  1
  2  3  1  0
  3  4  1  0
  4  5  1  6
  5  6  1  0
  6  7  1  0
  7  8  1  0
  7  9  1  0
 10  7  1  1
 10 11  1  0
 12 11  1  6
 12 13  1  0
 13 14  1  1
 14 15  1  0
 15 16  1  0
 16 17  2  0
 17 18  1  0
 18 19  2  0
 19 20  1  0
 20 21  2  0
 15 22  1  0
 23 22  1  1
 23 24  1  0
 24 25  1  0
 25 26  1  0
 26 27  2  0
 26 28  1  0
  4  2  1  0
 12 10  1  0
 23 13  1  0
 28 13  1  0
 21 16  1  0
M  CHG  1  27   1
M  END
>  <shape_align_shape_tanimoto>  (3) 
0.70404469160890215

>  <shape_align_color_tanimoto>  (3) 
0.056872990834360933

>  <metric>  (3) 
combo

>  <metric_score>  (3) 
0.380

>  <template_pid>  (3) 
6UWV

>  <template_shape_score>  (3) 
0.704

>  <template_color_score>  (3) 
0.057

>  <template_combo_score>  (3) 
0.380

$$$$
