3KJN_shape_pose
     RDKit          3D

 43 47  0  0  0  0  0  0  0  0999 V2000
    3.3311   -8.4401   20.2925 C   0  0  0  0  0  0  0  0  0  0  0  0
    3.6323   -9.5271   19.2813 C   0  0  0  0  0  0  0  0  0  0  0  0
    3.7651  -10.6395   19.7346 O   0  0  0  0  0  0  0  0  0  0  0  0
    3.7270   -9.1115   17.8845 C   0  0  2  0  0  0  0  0  0  0  0  0
    5.0126   -9.5424   17.1856 C   0  0  0  0  0  0  0  0  0  0  0  0
    5.1860  -11.0150   17.1409 C   0  0  0  0  0  0  0  0  0  0  0  0
    4.3861  -11.8541   17.5938 O   0  0  0  0  0  0  0  0  0  0  0  0
    6.3608  -11.4685   16.5304 O   0  0  0  0  0  0  0  0  0  0  0  0
    3.4550   -7.7141   17.6720 N   0  0  0  0  0  0  0  0  0  0  0  0
    4.4359   -6.6933   17.5646 C   0  0  0  0  0  0  0  0  0  0  0  0
    5.6856   -6.8947   17.6686 O   0  0  0  0  0  0  0  0  0  0  0  0
    4.0444   -5.2847   17.3149 C   0  0  2  0  0  0  0  0  0  0  0  0
    5.1967   -4.3563   17.5006 C   0  0  0  0  0  0  0  0  0  0  0  0
    5.5057   -3.9719   18.7698 C   0  0  0  0  0  0  0  0  0  0  0  0
    6.6389   -3.0588   18.9090 C   0  0  0  0  0  0  0  0  0  0  0  0
    6.3843   -1.7236   19.4976 C   0  0  0  0  0  0  0  0  0  0  0  0
    5.8391   -1.6765   20.8844 C   0  0  0  0  0  0  0  0  0  0  0  0
    6.2137   -0.2822   21.4315 C   0  0  0  0  0  0  0  0  0  0  0  0
    5.4579    0.7242   20.5878 C   0  0  0  0  0  0  0  0  0  0  0  0
    5.8857    0.6229   19.1380 C   0  0  0  0  0  0  0  0  0  0  0  0
    5.6129   -0.7826   18.5917 C   0  0  0  0  0  0  0  0  0  0  0  0
    4.6903   -4.5243   19.8842 C   0  0  0  0  0  0  0  0  0  0  0  0
    3.3009   -4.5205   19.4499 N   0  0  0  0  0  0  0  0  0  0  0  0
    2.1281   -4.1835   20.0699 C   0  0  0  0  0  0  0  0  0  0  0  0
    1.9775   -3.7778   21.2481 O   0  0  0  0  0  0  0  0  0  0  0  0
    1.1093   -4.3577   19.2009 N   0  0  0  0  0  0  0  0  0  0  0  0
   -0.3092   -4.1145   19.3967 C   0  0  0  0  0  0  0  0  0  0  0  0
   -1.0617   -5.2847   19.9307 C   0  0  0  0  0  0  0  0  0  0  0  0
   -2.4709   -4.9241   20.0731 N   0  0  0  0  0  0  0  0  0  0  0  0
   -2.9150   -3.8711   20.9147 C   0  0  0  0  0  0  0  0  0  0  0  0
   -2.1112   -3.1675   21.6095 O   0  0  0  0  0  0  0  0  0  0  0  0
   -4.3234   -3.5168   21.0458 C   0  0  0  0  0  0  0  0  0  0  0  0
   -4.7330   -2.5417   21.9304 C   0  0  0  0  0  0  0  0  0  0  0  0
   -6.0660   -2.1904   22.0721 C   0  0  0  0  0  0  0  0  0  0  0  0
   -7.0644   -2.8010   21.3288 C   0  0  0  0  0  0  0  0  0  0  0  0
   -8.4059   -2.6639   21.2554 N   0  0  0  0  0  0  0  0  0  0  0  0
   -8.8439   -3.5543   20.3208 C   0  0  0  0  0  0  0  0  0  0  0  0
   -7.7747   -4.2279   19.8299 N   0  0  0  0  0  0  0  0  0  0  0  0
   -6.6576   -3.7840   20.4352 C   0  0  0  0  0  0  0  0  0  0  0  0
   -5.3198   -4.1287   20.3026 C   0  0  0  0  0  0  0  0  0  0  0  0
    1.6885   -4.8053   18.0496 C   0  0  0  0  0  0  0  0  0  0  0  0
    0.9973   -5.0717   17.0064 O   0  0  0  0  0  0  0  0  0  0  0  0
    3.0122   -4.8957   18.2245 N   0  0  0  0  0  0  0  0  0  0  0  0
  1  2  1  0
  2  3  2  0
  2  4  1  0
  4  5  1  1
  5  6  1  0
  6  7  2  0
  6  8  1  0
  4  9  1  0
  9 10  1  0
 10 11  2  0
 12 10  1  1
 12 13  1  0
 13 14  2  0
 14 15  1  0
 15 16  1  0
 16 17  1  0
 17 18  1  0
 18 19  1  0
 19 20  1  0
 20 21  1  0
 14 22  1  0
 22 23  1  0
 23 24  1  0
 24 25  2  0
 24 26  1  0
 26 27  1  0
 27 28  1  0
 28 29  1  0
 29 30  1  0
 30 31  2  0
 30 32  1  0
 32 33  2  0
 33 34  1  0
 34 35  2  0
 35 36  1  0
 36 37  2  0
 37 38  1  0
 38 39  1  0
 39 40  2  0
 26 41  1  0
 41 42  2  0
 41 43  1  0
 43 12  1  0
 21 16  1  0
 43 23  1  0
 40 32  1  0
 39 35  1  0
M  CHG  1   8  -1
M  END
>  <shape_align_shape_tanimoto>  (1) 
0.52786049258428791

>  <shape_align_color_tanimoto>  (1) 
0.01858634774360517

>  <metric>  (1) 
shape

>  <metric_score>  (1) 
0.528

>  <template_pid>  (1) 
3KJN

>  <template_shape_score>  (1) 
0.528

>  <template_color_score>  (1) 
0.019

>  <template_combo_score>  (1) 
0.273

$$$$
3KJN_color_pose
     RDKit          3D

 43 47  0  0  0  0  0  0  0  0999 V2000
    5.6021   -7.1482   14.6676 C   0  0  0  0  0  0  0  0  0  0  0  0
    4.8398   -8.1204   15.4952 C   0  0  0  0  0  0  0  0  0  0  0  0
    4.7520   -9.2707   15.0448 O   0  0  0  0  0  0  0  0  0  0  0  0
    4.2038   -7.7739   16.7944 C   0  0  2  0  0  0  0  0  0  0  0  0
    2.7516   -8.1497   16.7399 C   0  0  0  0  0  0  0  0  0  0  0  0
    1.9993   -7.4518   15.6686 C   0  0  0  0  0  0  0  0  0  0  0  0
    0.7541   -7.6852   15.5181 O   0  0  0  0  0  0  0  0  0  0  0  0
    2.5786   -6.5383   14.7978 O   0  0  0  0  0  0  0  0  0  0  0  0
    4.4517   -6.3957   17.0742 N   0  0  0  0  0  0  0  0  0  0  0  0
    5.2288   -6.0376   18.2103 C   0  0  0  0  0  0  0  0  0  0  0  0
    5.6769   -6.9652   18.9358 O   0  0  0  0  0  0  0  0  0  0  0  0
    5.4747   -4.6359   18.4882 C   0  0  2  0  0  0  0  0  0  0  0  0
    6.3697   -4.4296   19.6867 C   0  0  0  0  0  0  0  0  0  0  0  0
    6.4803   -3.1568   20.1560 C   0  0  0  0  0  0  0  0  0  0  0  0
    7.3318   -2.9041   21.3149 C   0  0  0  0  0  0  0  0  0  0  0  0
    6.7015   -2.3985   22.5649 C   0  0  0  0  0  0  0  0  0  0  0  0
    5.9766   -1.0964   22.4308 C   0  0  0  0  0  0  0  0  0  0  0  0
    5.4223   -0.6426   23.7702 C   0  0  0  0  0  0  0  0  0  0  0  0
    6.4310   -0.6351   24.8565 C   0  0  0  0  0  0  0  0  0  0  0  0
    7.1679   -1.9684   24.9301 C   0  0  0  0  0  0  0  0  0  0  0  0
    7.8370   -2.1598   23.5891 C   0  0  0  0  0  0  0  0  0  0  0  0
    5.7403   -2.1455   19.3563 C   0  0  0  0  0  0  0  0  0  0  0  0
    4.3676   -2.6368   19.2988 N   0  0  0  0  0  0  0  0  0  0  0  0
    3.1532   -2.1440   19.5821 C   0  0  0  0  0  0  0  0  0  0  0  0
    2.9465   -0.9805   20.0164 O   0  0  0  0  0  0  0  0  0  0  0  0
    2.2527   -3.1039   19.3184 N   0  0  0  0  0  0  0  0  0  0  0  0
    0.7941   -3.0004   19.4838 C   0  0  0  0  0  0  0  0  0  0  0  0
    0.5056   -3.4600   20.8990 C   0  0  0  0  0  0  0  0  0  0  0  0
   -0.9256   -3.3717   21.1084 N   0  0  0  0  0  0  0  0  0  0  0  0
   -1.8858   -4.0759   20.3563 C   0  0  0  0  0  0  0  0  0  0  0  0
   -1.5284   -4.8486   19.4279 O   0  0  0  0  0  0  0  0  0  0  0  0
   -3.3306   -3.9725   20.5821 C   0  0  0  0  0  0  0  0  0  0  0  0
   -4.1837   -4.7032   19.7923 C   0  0  0  0  0  0  0  0  0  0  0  0
   -5.5671   -4.6661   19.9360 C   0  0  0  0  0  0  0  0  0  0  0  0
   -6.0996   -3.8570   20.9176 C   0  0  0  0  0  0  0  0  0  0  0  0
   -7.3869   -3.6310   21.2744 N   0  0  0  0  0  0  0  0  0  0  0  0
   -7.3621   -2.7447   22.3057 C   0  0  0  0  0  0  0  0  0  0  0  0
   -6.0832   -2.4439   22.5637 N   0  0  0  0  0  0  0  0  0  0  0  0
   -5.2585   -3.1152   21.7213 C   0  0  0  0  0  0  0  0  0  0  0  0
   -3.8828   -3.1715   21.5559 C   0  0  0  0  0  0  0  0  0  0  0  0
    2.9476   -4.1796   18.8725 C   0  0  0  0  0  0  0  0  0  0  0  0
    2.3972   -5.2445   18.5410 O   0  0  0  0  0  0  0  0  0  0  0  0
    4.2535   -3.9041   18.8555 N   0  0  0  0  0  0  0  0  0  0  0  0
  1  2  1  0
  2  3  2  0
  2  4  1  0
  4  5  1  6
  5  6  1  0
  6  7  2  0
  6  8  1  0
  4  9  1  0
  9 10  1  0
 10 11  2  0
 12 10  1  1
 12 13  1  0
 13 14  2  0
 14 15  1  0
 15 16  1  0
 16 17  1  0
 17 18  1  0
 18 19  1  0
 19 20  1  0
 20 21  1  0
 14 22  1  0
 22 23  1  0
 23 24  1  0
 24 25  2  0
 24 26  1  0
 26 27  1  0
 27 28  1  0
 28 29  1  0
 29 30  1  0
 30 31  2  0
 30 32  1  0
 32 33  2  0
 33 34  1  0
 34 35  2  0
 35 36  1  0
 36 37  2  0
 37 38  1  0
 38 39  1  0
 39 40  2  0
 26 41  1  0
 41 42  2  0
 41 43  1  0
 43 12  1  0
 21 16  1  0
 43 23  1  0
 40 32  1  0
 39 35  1  0
M  CHG  1   8  -1
M  END
>  <shape_align_shape_tanimoto>  (2) 
0.45510405087356726

>  <shape_align_color_tanimoto>  (2) 
0.095190905625162484

>  <metric>  (2) 
color

>  <metric_score>  (2) 
0.095

>  <template_pid>  (2) 
3KJN

>  <template_shape_score>  (2) 
0.455

>  <template_color_score>  (2) 
0.095

>  <template_combo_score>  (2) 
0.275

$$$$
3KJN_combo_pose
     RDKit          3D

 43 47  0  0  0  0  0  0  0  0999 V2000
    5.6021   -7.1482   14.6676 C   0  0  0  0  0  0  0  0  0  0  0  0
    4.8398   -8.1204   15.4952 C   0  0  0  0  0  0  0  0  0  0  0  0
    4.7520   -9.2707   15.0448 O   0  0  0  0  0  0  0  0  0  0  0  0
    4.2038   -7.7739   16.7944 C   0  0  2  0  0  0  0  0  0  0  0  0
    2.7516   -8.1497   16.7399 C   0  0  0  0  0  0  0  0  0  0  0  0
    1.9993   -7.4518   15.6686 C   0  0  0  0  0  0  0  0  0  0  0  0
    0.7541   -7.6852   15.5181 O   0  0  0  0  0  0  0  0  0  0  0  0
    2.5786   -6.5383   14.7978 O   0  0  0  0  0  0  0  0  0  0  0  0
    4.4517   -6.3957   17.0742 N   0  0  0  0  0  0  0  0  0  0  0  0
    5.2288   -6.0376   18.2103 C   0  0  0  0  0  0  0  0  0  0  0  0
    5.6769   -6.9652   18.9358 O   0  0  0  0  0  0  0  0  0  0  0  0
    5.4747   -4.6359   18.4882 C   0  0  2  0  0  0  0  0  0  0  0  0
    6.3697   -4.4296   19.6867 C   0  0  0  0  0  0  0  0  0  0  0  0
    6.4803   -3.1568   20.1560 C   0  0  0  0  0  0  0  0  0  0  0  0
    7.3318   -2.9041   21.3149 C   0  0  0  0  0  0  0  0  0  0  0  0
    6.7015   -2.3985   22.5649 C   0  0  0  0  0  0  0  0  0  0  0  0
    5.9766   -1.0964   22.4308 C   0  0  0  0  0  0  0  0  0  0  0  0
    5.4223   -0.6426   23.7702 C   0  0  0  0  0  0  0  0  0  0  0  0
    6.4310   -0.6351   24.8565 C   0  0  0  0  0  0  0  0  0  0  0  0
    7.1679   -1.9684   24.9301 C   0  0  0  0  0  0  0  0  0  0  0  0
    7.8370   -2.1598   23.5891 C   0  0  0  0  0  0  0  0  0  0  0  0
    5.7403   -2.1455   19.3563 C   0  0  0  0  0  0  0  0  0  0  0  0
    4.3676   -2.6368   19.2988 N   0  0  0  0  0  0  0  0  0  0  0  0
    3.1532   -2.1440   19.5821 C   0  0  0  0  0  0  0  0  0  0  0  0
    2.9465   -0.9805   20.0164 O   0  0  0  0  0  0  0  0  0  0  0  0
    2.2527   -3.1039   19.3184 N   0  0  0  0  0  0  0  0  0  0  0  0
    0.7941   -3.0004   19.4838 C   0  0  0  0  0  0  0  0  0  0  0  0
    0.5056   -3.4600   20.8990 C   0  0  0  0  0  0  0  0  0  0  0  0
   -0.9256   -3.3717   21.1084 N   0  0  0  0  0  0  0  0  0  0  0  0
   -1.8858   -4.0759   20.3563 C   0  0  0  0  0  0  0  0  0  0  0  0
   -1.5284   -4.8486   19.4279 O   0  0  0  0  0  0  0  0  0  0  0  0
   -3.3306   -3.9725   20.5821 C   0  0  0  0  0  0  0  0  0  0  0  0
   -4.1837   -4.7032   19.7923 C   0  0  0  0  0  0  0  0  0  0  0  0
   -5.5671   -4.6661   19.9360 C   0  0  0  0  0  0  0  0  0  0  0  0
   -6.0996   -3.8570   20.9176 C   0  0  0  0  0  0  0  0  0  0  0  0
   -7.3869   -3.6310   21.2744 N   0  0  0  0  0  0  0  0  0  0  0  0
   -7.3621   -2.7447   22.3057 C   0  0  0  0  0  0  0  0  0  0  0  0
   -6.0832   -2.4439   22.5637 N   0  0  0  0  0  0  0  0  0  0  0  0
   -5.2585   -3.1152   21.7213 C   0  0  0  0  0  0  0  0  0  0  0  0
   -3.8828   -3.1715   21.5559 C   0  0  0  0  0  0  0  0  0  0  0  0
    2.9476   -4.1796   18.8725 C   0  0  0  0  0  0  0  0  0  0  0  0
    2.3972   -5.2445   18.5410 O   0  0  0  0  0  0  0  0  0  0  0  0
    4.2535   -3.9041   18.8555 N   0  0  0  0  0  0  0  0  0  0  0  0
  1  2  1  0
  2  3  2  0
  2  4  1  0
  4  5  1  6
  5  6  1  0
  6  7  2  0
  6  8  1  0
  4  9  1  0
  9 10  1  0
 10 11  2  0
 12 10  1  1
 12 13  1  0
 13 14  2  0
 14 15  1  0
 15 16  1  0
 16 17  1  0
 17 18  1  0
 18 19  1  0
 19 20  1  0
 20 21  1  0
 14 22  1  0
 22 23  1  0
 23 24  1  0
 24 25  2  0
 24 26  1  0
 26 27  1  0
 27 28  1  0
 28 29  1  0
 29 30  1  0
 30 31  2  0
 30 32  1  0
 32 33  2  0
 33 34  1  0
 34 35  2  0
 35 36  1  0
 36 37  2  0
 37 38  1  0
 38 39  1  0
 39 40  2  0
 26 41  1  0
 41 42  2  0
 41 43  1  0
 43 12  1  0
 21 16  1  0
 43 23  1  0
 40 32  1  0
 39 35  1  0
M  CHG  1   8  -1
M  END
>  <shape_align_shape_tanimoto>  (3) 
0.45510405087356726

>  <shape_align_color_tanimoto>  (3) 
0.095190905625162484

>  <metric>  (3) 
combo

>  <metric_score>  (3) 
0.275

>  <template_pid>  (3) 
3KJN

>  <template_shape_score>  (3) 
0.455

>  <template_color_score>  (3) 
0.095

>  <template_combo_score>  (3) 
0.275

$$$$
