6G2F_shape_pose
     RDKit          3D

 24 27  0  0  0  0  0  0  0  0999 V2000
   20.7263   -2.0505  -22.5354 C   0  0  0  0  0  0  0  0  0  0  0  0
   19.8565   -2.1863  -21.3636 C   0  0  0  0  0  0  0  0  0  0  0  0
   19.0910   -3.2495  -21.0689 N   0  0  0  0  0  0  0  0  0  0  0  0
   18.4498   -3.0128  -19.9402 O   0  0  0  0  0  0  0  0  0  0  0  0
   18.7794   -1.8138  -19.4871 C   0  0  0  0  0  0  0  0  0  0  0  0
   18.2821   -1.1580  -18.2425 C   0  0  0  0  0  0  0  0  0  0  0  0
   19.6889   -1.2558  -20.3890 C   0  0  0  0  0  0  0  0  0  0  0  0
   20.2665    0.0703  -20.2053 C   0  0  0  0  0  0  0  0  0  0  0  0
   21.0694    0.3638  -19.1445 N   0  0  0  0  0  0  0  0  0  0  0  0
   21.4435    1.6727  -19.2537 C   0  0  0  0  0  0  0  0  0  0  0  0
   20.8632    2.1652  -20.3830 N   0  0  0  0  0  0  0  0  0  0  0  0
   21.0619    3.5515  -20.7871 C   0  0  0  0  0  0  0  0  0  0  0  0
   20.1388    1.2030  -20.9813 C   0  0  0  0  0  0  0  0  0  0  0  0
   19.3730    1.3243  -22.1878 C   0  0  0  0  0  0  0  0  0  0  0  0
   17.9967    1.2047  -22.1006 C   0  0  0  0  0  0  0  0  0  0  0  0
   17.2168    1.3179  -23.2548 C   0  0  0  0  0  0  0  0  0  0  0  0
   17.7769    1.5431  -24.4644 N   0  0  0  0  0  0  0  0  0  0  0  0
   19.0969    1.6615  -24.5741 C   0  0  0  0  0  0  0  0  0  0  0  0
   19.6949    1.8909  -25.8006 C   0  0  0  0  0  0  0  0  0  0  0  0
   21.0807    2.0158  -25.9290 C   0  0  0  0  0  0  0  0  0  0  0  0
   21.6550    2.2386  -27.1267 F   0  0  0  0  0  0  0  0  0  0  0  0
   21.8751    1.9064  -24.7960 C   0  0  0  0  0  0  0  0  0  0  0  0
   21.2536    1.6767  -23.5789 C   0  0  0  0  0  0  0  0  0  0  0  0
   19.8948    1.5531  -23.4434 C   0  0  0  0  0  0  0  0  0  0  0  0
  1  2  1  0
  2  3  2  0
  3  4  1  0
  4  5  1  0
  5  6  1  0
  5  7  2  0
  7  8  1  0
  8  9  1  0
  9 10  2  0
 10 11  1  0
 11 12  1  0
 11 13  1  0
 13 14  1  0
 14 15  2  0
 15 16  1  0
 16 17  2  0
 17 18  1  0
 18 19  2  0
 19 20  1  0
 20 21  1  0
 20 22  2  0
 22 23  1  0
 23 24  2  0
  7  2  1  0
 13  8  2  0
 24 14  1  0
 24 18  1  0
M  END
>  <shape_align_shape_tanimoto>  (1) 
0.57706328958620856

>  <shape_align_color_tanimoto>  (1) 
0.072319282555216441

>  <metric>  (1) 
shape

>  <metric_score>  (1) 
0.577

>  <template_pid>  (1) 
6G2F

>  <template_shape_score>  (1) 
0.577

>  <template_color_score>  (1) 
0.072

>  <template_combo_score>  (1) 
0.325

$$$$
6G2F_color_pose
     RDKit          3D

 24 27  0  0  0  0  0  0  0  0999 V2000
   23.2869    1.0488  -20.8788 C   0  0  0  0  0  0  0  0  0  0  0  0
   22.3347    2.1986  -20.8217 C   0  0  0  0  0  0  0  0  0  0  0  0
   22.7178    3.4667  -20.7176 N   0  0  0  0  0  0  0  0  0  0  0  0
   21.6558    4.1853  -20.6960 O   0  0  0  0  0  0  0  0  0  0  0  0
   20.5552    3.4770  -20.7797 C   0  0  0  0  0  0  0  0  0  0  0  0
   19.1521    3.9612  -20.7848 C   0  0  0  0  0  0  0  0  0  0  0  0
   20.9496    2.1709  -20.8639 C   0  0  0  0  0  0  0  0  0  0  0  0
   20.1239    0.9722  -20.9763 C   0  0  0  0  0  0  0  0  0  0  0  0
   20.0598   -0.0637  -20.1183 N   0  0  0  0  0  0  0  0  0  0  0  0
   19.1666   -0.9828  -20.5818 C   0  0  0  0  0  0  0  0  0  0  0  0
   18.6745   -0.5042  -21.7421 N   0  0  0  0  0  0  0  0  0  0  0  0
   17.6760   -1.1995  -22.5653 C   0  0  0  0  0  0  0  0  0  0  0  0
   19.2473    0.6924  -22.0030 C   0  0  0  0  0  0  0  0  0  0  0  0
   18.9291    1.4713  -23.1915 C   0  0  0  0  0  0  0  0  0  0  0  0
   17.6357    1.9742  -23.2839 C   0  0  0  0  0  0  0  0  0  0  0  0
   17.2508    2.7247  -24.3796 C   0  0  0  0  0  0  0  0  0  0  0  0
   18.1244    2.9705  -25.3580 N   0  0  0  0  0  0  0  0  0  0  0  0
   19.3868    2.4849  -25.2774 C   0  0  0  0  0  0  0  0  0  0  0  0
   20.2527    2.7632  -26.3119 C   0  0  0  0  0  0  0  0  0  0  0  0
   21.5442    2.2621  -26.2245 C   0  0  0  0  0  0  0  0  0  0  0  0
   22.3710    2.5628  -27.2754 F   0  0  0  0  0  0  0  0  0  0  0  0
   21.9719    1.5082  -25.1493 C   0  0  0  0  0  0  0  0  0  0  0  0
   21.1015    1.2327  -24.1173 C   0  0  0  0  0  0  0  0  0  0  0  0
   19.8217    1.7289  -24.2033 C   0  0  0  0  0  0  0  0  0  0  0  0
  1  2  1  0
  2  3  2  0
  3  4  1  0
  4  5  1  0
  5  6  1  0
  5  7  2  0
  7  8  1  0
  8  9  1  0
  9 10  2  0
 10 11  1  0
 11 12  1  0
 11 13  1  0
 13 14  1  0
 14 15  2  0
 15 16  1  0
 16 17  2  0
 17 18  1  0
 18 19  2  0
 19 20  1  0
 20 21  1  0
 20 22  2  0
 22 23  1  0
 23 24  2  0
  7  2  1  0
 13  8  2  0
 24 14  1  0
 24 18  1  0
M  END
>  <shape_align_shape_tanimoto>  (2) 
0.50702411429931205

>  <shape_align_color_tanimoto>  (2) 
0.12565654508514018

>  <metric>  (2) 
color

>  <metric_score>  (2) 
0.126

>  <template_pid>  (2) 
6G2F

>  <template_shape_score>  (2) 
0.507

>  <template_color_score>  (2) 
0.126

>  <template_combo_score>  (2) 
0.316

$$$$
6G2F_combo_pose
     RDKit          3D

 24 27  0  0  0  0  0  0  0  0999 V2000
   19.0429    4.0990  -20.5587 C   0  0  0  0  0  0  0  0  0  0  0  0
   20.4457    3.6874  -20.5928 C   0  0  0  0  0  0  0  0  0  0  0  0
   21.5053    4.5150  -20.5620 N   0  0  0  0  0  0  0  0  0  0  0  0
   22.5744    3.7794  -20.6058 O   0  0  0  0  0  0  0  0  0  0  0  0
   22.2910    2.5008  -20.6646 C   0  0  0  0  0  0  0  0  0  0  0  0
   23.2869    1.3925  -20.7252 C   0  0  0  0  0  0  0  0  0  0  0  0
   20.9139    2.3985  -20.6585 C   0  0  0  0  0  0  0  0  0  0  0  0
   20.2166    1.1286  -20.7140 C   0  0  0  0  0  0  0  0  0  0  0  0
   20.3146    0.1863  -19.7554 N   0  0  0  0  0  0  0  0  0  0  0  0
   19.5707   -0.8829  -20.0629 C   0  0  0  0  0  0  0  0  0  0  0  0
   18.9797   -0.6091  -21.2590 N   0  0  0  0  0  0  0  0  0  0  0  0
   18.0688   -1.4912  -21.9998 C   0  0  0  0  0  0  0  0  0  0  0  0
   19.3665    0.6233  -21.6724 C   0  0  0  0  0  0  0  0  0  0  0  0
   18.9242    1.2327  -22.9111 C   0  0  0  0  0  0  0  0  0  0  0  0
   17.5600    1.5186  -23.0434 C   0  0  0  0  0  0  0  0  0  0  0  0
   17.0894    2.0958  -24.2023 C   0  0  0  0  0  0  0  0  0  0  0  0
   17.8988    2.4037  -25.2345 N   0  0  0  0  0  0  0  0  0  0  0  0
   19.2060    2.1240  -25.0946 C   0  0  0  0  0  0  0  0  0  0  0  0
   20.0439    2.4372  -26.1572 C   0  0  0  0  0  0  0  0  0  0  0  0
   21.4113    2.1793  -26.0993 C   0  0  0  0  0  0  0  0  0  0  0  0
   22.2208    2.4849  -27.1330 F   0  0  0  0  0  0  0  0  0  0  0  0
   21.8983    1.5980  -24.9388 C   0  0  0  0  0  0  0  0  0  0  0  0
   21.0945    1.2751  -23.8670 C   0  0  0  0  0  0  0  0  0  0  0  0
   19.7473    1.5473  -23.9651 C   0  0  0  0  0  0  0  0  0  0  0  0
  1  2  1  0
  2  3  2  0
  3  4  1  0
  4  5  1  0
  5  6  1  0
  5  7  2  0
  7  8  1  0
  8  9  1  0
  9 10  2  0
 10 11  1  0
 11 12  1  0
 11 13  1  0
 13 14  1  0
 14 15  2  0
 15 16  1  0
 16 17  2  0
 17 18  1  0
 18 19  2  0
 19 20  1  0
 20 21  1  0
 20 22  2  0
 22 23  1  0
 23 24  2  0
  7  2  1  0
 13  8  2  0
 24 14  1  0
 24 18  1  0
M  END
>  <shape_align_shape_tanimoto>  (3) 
0.53345966436704773

>  <shape_align_color_tanimoto>  (3) 
0.12389590315239521

>  <metric>  (3) 
combo

>  <metric_score>  (3) 
0.329

>  <template_pid>  (3) 
6G2F

>  <template_shape_score>  (3) 
0.533

>  <template_color_score>  (3) 
0.124

>  <template_combo_score>  (3) 
0.329

$$$$
