4ZZ0_shape_pose
     RDKit          3D

 30 31  0  0  0  0  0  0  0  0999 V2000
   14.9697  102.3576   49.6983 N   0  0  0  0  0  0  0  0  0  0  0  0
   15.7684  103.0940   49.0327 C   0  0  0  0  0  0  0  0  0  0  0  0
   16.9074  103.5276   49.5895 N   0  0  0  0  0  0  0  0  0  0  0  0
   17.7948  104.3064   48.9464 C   0  0  0  0  0  0  0  0  0  0  0  0
   18.8483  104.6830   49.5222 O   0  0  0  0  0  0  0  0  0  0  0  0
   17.4872  104.6589   47.6491 C   0  0  0  0  0  0  0  0  0  0  0  0
   18.1709  105.4272   46.7441 C   0  0  0  0  0  0  0  0  0  0  0  0
   17.4175  105.4734   45.5642 C   0  0  0  0  0  0  0  0  0  0  0  0
   17.8449  106.2173   44.3592 C   0  0  0  0  0  0  0  0  0  0  0  0
   17.3370  107.6494   44.3760 C   0  0  0  0  0  0  0  0  0  0  0  0
   15.8529  107.7348   44.4193 C   0  0  0  0  0  0  0  0  0  0  0  0
   15.1514  107.1004   43.2626 C   0  0  0  0  0  0  0  0  0  0  0  0
   15.4922  107.6833   41.9311 C   0  0  0  0  0  0  0  0  0  0  0  0
   14.7164  106.9440   40.8638 C   0  0  0  0  0  0  0  0  0  0  0  0
   15.0037  105.4831   40.7892 C   0  0  0  0  0  0  0  0  0  0  0  0
   16.3918  105.1191   40.4910 C   0  0  0  0  0  0  0  0  0  0  0  0
   17.3283  105.9267   40.2715 O   0  0  0  0  0  0  0  0  0  0  0  0
   16.7229  103.7334   40.4426 N   0  0  0  0  0  0  0  0  0  0  0  0
   18.0880  103.3346   40.1491 C   0  0  1  0  0  0  0  0  0  0  0  0
   18.6695  102.4209   41.1626 C   0  0  0  0  0  0  0  0  0  0  0  0
   20.0887  102.0774   40.7762 C   0  0  0  0  0  0  0  0  0  0  0  0
   20.9693  103.2723   40.6798 C   0  0  0  0  0  0  0  0  0  0  0  0
   20.9987  104.0232   39.6622 O   0  0  0  0  0  0  0  0  0  0  0  0
   21.8174  103.6270   41.7222 O   0  0  0  0  0  0  0  0  0  0  0  0
   17.9962  102.5898   38.8481 C   0  0  0  0  0  0  0  0  0  0  0  0
   18.1226  101.3606   38.7429 O   0  0  0  0  0  0  0  0  0  0  0  0
   17.7539  103.3155   37.6820 O   0  0  0  0  0  0  0  0  0  0  0  0
   16.3210  104.7402   45.7983 N   0  0  0  0  0  0  0  0  0  0  0  0
   16.3280  104.2340   47.0428 C   0  0  0  0  0  0  0  0  0  0  0  0
   15.5030  103.4557   47.7730 N   0  0  0  0  0  0  0  0  0  0  0  0
  1  2  2  0
  2  3  1  0
  3  4  1  0
  4  5  2  0
  4  6  1  0
  6  7  1  0
  7  8  2  0
  8  9  1  0
  9 10  1  0
 10 11  1  0
 11 12  1  0
 12 13  1  0
 13 14  1  0
 14 15  1  0
 15 16  1  0
 16 17  2  0
 16 18  1  0
 18 19  1  0
 19 20  1  1
 20 21  1  0
 21 22  1  0
 22 23  2  0
 22 24  1  0
 19 25  1  0
 25 26  2  0
 25 27  1  0
  8 28  1  0
 28 29  1  0
 29 30  1  0
 30  2  1  0
 29  6  2  0
M  CHG  3   1   1  24  -1  27  -1
M  END
>  <shape_align_shape_tanimoto>  (1) 
0.60592675018942077

>  <shape_align_color_tanimoto>  (1) 
0.10697956806705973

>  <metric>  (1) 
shape

>  <metric_score>  (1) 
0.606

>  <template_pid>  (1) 
4ZZ0

>  <template_shape_score>  (1) 
0.606

>  <template_color_score>  (1) 
0.107

>  <template_combo_score>  (1) 
0.356

$$$$
4ZZ0_color_pose
     RDKit          3D

 30 31  0  0  0  0  0  0  0  0999 V2000
   14.9697  102.3576   49.6983 N   0  0  0  0  0  0  0  0  0  0  0  0
   15.7684  103.0940   49.0327 C   0  0  0  0  0  0  0  0  0  0  0  0
   16.9074  103.5276   49.5895 N   0  0  0  0  0  0  0  0  0  0  0  0
   17.7948  104.3064   48.9464 C   0  0  0  0  0  0  0  0  0  0  0  0
   18.8483  104.6830   49.5222 O   0  0  0  0  0  0  0  0  0  0  0  0
   17.4872  104.6589   47.6491 C   0  0  0  0  0  0  0  0  0  0  0  0
   18.1709  105.4272   46.7441 C   0  0  0  0  0  0  0  0  0  0  0  0
   17.4175  105.4734   45.5642 C   0  0  0  0  0  0  0  0  0  0  0  0
   17.8449  106.2173   44.3592 C   0  0  0  0  0  0  0  0  0  0  0  0
   17.3370  107.6494   44.3760 C   0  0  0  0  0  0  0  0  0  0  0  0
   15.8529  107.7348   44.4193 C   0  0  0  0  0  0  0  0  0  0  0  0
   15.1514  107.1004   43.2626 C   0  0  0  0  0  0  0  0  0  0  0  0
   15.4922  107.6833   41.9311 C   0  0  0  0  0  0  0  0  0  0  0  0
   14.7164  106.9440   40.8638 C   0  0  0  0  0  0  0  0  0  0  0  0
   15.0037  105.4831   40.7892 C   0  0  0  0  0  0  0  0  0  0  0  0
   16.3918  105.1191   40.4910 C   0  0  0  0  0  0  0  0  0  0  0  0
   17.3283  105.9267   40.2715 O   0  0  0  0  0  0  0  0  0  0  0  0
   16.7229  103.7334   40.4426 N   0  0  0  0  0  0  0  0  0  0  0  0
   18.0880  103.3346   40.1491 C   0  0  1  0  0  0  0  0  0  0  0  0
   18.6695  102.4209   41.1626 C   0  0  0  0  0  0  0  0  0  0  0  0
   20.0887  102.0774   40.7762 C   0  0  0  0  0  0  0  0  0  0  0  0
   20.9693  103.2723   40.6798 C   0  0  0  0  0  0  0  0  0  0  0  0
   20.9987  104.0232   39.6622 O   0  0  0  0  0  0  0  0  0  0  0  0
   21.8174  103.6270   41.7222 O   0  0  0  0  0  0  0  0  0  0  0  0
   17.9962  102.5898   38.8481 C   0  0  0  0  0  0  0  0  0  0  0  0
   18.1226  101.3606   38.7429 O   0  0  0  0  0  0  0  0  0  0  0  0
   17.7539  103.3155   37.6820 O   0  0  0  0  0  0  0  0  0  0  0  0
   16.3210  104.7402   45.7983 N   0  0  0  0  0  0  0  0  0  0  0  0
   16.3280  104.2340   47.0428 C   0  0  0  0  0  0  0  0  0  0  0  0
   15.5030  103.4557   47.7730 N   0  0  0  0  0  0  0  0  0  0  0  0
  1  2  2  0
  2  3  1  0
  3  4  1  0
  4  5  2  0
  4  6  1  0
  6  7  1  0
  7  8  2  0
  8  9  1  0
  9 10  1  0
 10 11  1  0
 11 12  1  0
 12 13  1  0
 13 14  1  0
 14 15  1  0
 15 16  1  0
 16 17  2  0
 16 18  1  0
 18 19  1  0
 19 20  1  1
 20 21  1  0
 21 22  1  0
 22 23  2  0
 22 24  1  0
 19 25  1  0
 25 26  2  0
 25 27  1  0
  8 28  1  0
 28 29  1  0
 29 30  1  0
 30  2  1  0
 29  6  2  0
M  CHG  3   1   1  24  -1  27  -1
M  END
>  <shape_align_shape_tanimoto>  (2) 
0.60592675018942077

>  <shape_align_color_tanimoto>  (2) 
0.10697956806705973

>  <metric>  (2) 
color

>  <metric_score>  (2) 
0.107

>  <template_pid>  (2) 
4ZZ0

>  <template_shape_score>  (2) 
0.606

>  <template_color_score>  (2) 
0.107

>  <template_combo_score>  (2) 
0.356

$$$$
4ZZ0_combo_pose
     RDKit          3D

 30 31  0  0  0  0  0  0  0  0999 V2000
   14.9697  102.3576   49.6983 N   0  0  0  0  0  0  0  0  0  0  0  0
   15.7684  103.0940   49.0327 C   0  0  0  0  0  0  0  0  0  0  0  0
   16.9074  103.5276   49.5895 N   0  0  0  0  0  0  0  0  0  0  0  0
   17.7948  104.3064   48.9464 C   0  0  0  0  0  0  0  0  0  0  0  0
   18.8483  104.6830   49.5222 O   0  0  0  0  0  0  0  0  0  0  0  0
   17.4872  104.6589   47.6491 C   0  0  0  0  0  0  0  0  0  0  0  0
   18.1709  105.4272   46.7441 C   0  0  0  0  0  0  0  0  0  0  0  0
   17.4175  105.4734   45.5642 C   0  0  0  0  0  0  0  0  0  0  0  0
   17.8449  106.2173   44.3592 C   0  0  0  0  0  0  0  0  0  0  0  0
   17.3370  107.6494   44.3760 C   0  0  0  0  0  0  0  0  0  0  0  0
   15.8529  107.7348   44.4193 C   0  0  0  0  0  0  0  0  0  0  0  0
   15.1514  107.1004   43.2626 C   0  0  0  0  0  0  0  0  0  0  0  0
   15.4922  107.6833   41.9311 C   0  0  0  0  0  0  0  0  0  0  0  0
   14.7164  106.9440   40.8638 C   0  0  0  0  0  0  0  0  0  0  0  0
   15.0037  105.4831   40.7892 C   0  0  0  0  0  0  0  0  0  0  0  0
   16.3918  105.1191   40.4910 C   0  0  0  0  0  0  0  0  0  0  0  0
   17.3283  105.9267   40.2715 O   0  0  0  0  0  0  0  0  0  0  0  0
   16.7229  103.7334   40.4426 N   0  0  0  0  0  0  0  0  0  0  0  0
   18.0880  103.3346   40.1491 C   0  0  1  0  0  0  0  0  0  0  0  0
   18.6695  102.4209   41.1626 C   0  0  0  0  0  0  0  0  0  0  0  0
   20.0887  102.0774   40.7762 C   0  0  0  0  0  0  0  0  0  0  0  0
   20.9693  103.2723   40.6798 C   0  0  0  0  0  0  0  0  0  0  0  0
   20.9987  104.0232   39.6622 O   0  0  0  0  0  0  0  0  0  0  0  0
   21.8174  103.6270   41.7222 O   0  0  0  0  0  0  0  0  0  0  0  0
   17.9962  102.5898   38.8481 C   0  0  0  0  0  0  0  0  0  0  0  0
   18.1226  101.3606   38.7429 O   0  0  0  0  0  0  0  0  0  0  0  0
   17.7539  103.3155   37.6820 O   0  0  0  0  0  0  0  0  0  0  0  0
   16.3210  104.7402   45.7983 N   0  0  0  0  0  0  0  0  0  0  0  0
   16.3280  104.2340   47.0428 C   0  0  0  0  0  0  0  0  0  0  0  0
   15.5030  103.4557   47.7730 N   0  0  0  0  0  0  0  0  0  0  0  0
  1  2  2  0
  2  3  1  0
  3  4  1  0
  4  5  2  0
  4  6  1  0
  6  7  1  0
  7  8  2  0
  8  9  1  0
  9 10  1  0
 10 11  1  0
 11 12  1  0
 12 13  1  0
 13 14  1  0
 14 15  1  0
 15 16  1  0
 16 17  2  0
 16 18  1  0
 18 19  1  0
 19 20  1  1
 20 21  1  0
 21 22  1  0
 22 23  2  0
 22 24  1  0
 19 25  1  0
 25 26  2  0
 25 27  1  0
  8 28  1  0
 28 29  1  0
 29 30  1  0
 30  2  1  0
 29  6  2  0
M  CHG  3   1   1  24  -1  27  -1
M  END
>  <shape_align_shape_tanimoto>  (3) 
0.60592675018942077

>  <shape_align_color_tanimoto>  (3) 
0.10697956806705973

>  <metric>  (3) 
combo

>  <metric_score>  (3) 
0.356

>  <template_pid>  (3) 
4ZZ0

>  <template_shape_score>  (3) 
0.606

>  <template_color_score>  (3) 
0.107

>  <template_combo_score>  (3) 
0.356

$$$$
