3S75_shape_pose
     RDKit          3D

  9  9  0  0  0  0  0  0  0  0999 V2000
   20.0567    5.4977   15.6198 N   0  0  0  0  0  0  0  0  0  0  0  0
   19.1923    6.3040   14.3870 S   0  0  0  0  0  0  0  0  0  0  0  0
   19.4445    7.7823   14.5291 O   0  0  0  0  0  0  0  0  0  0  0  0
   19.7569    5.9034   13.0643 O   0  0  0  0  0  0  0  0  0  0  0  0
   17.4863    5.9222   14.4163 C   0  0  0  0  0  0  0  0  0  0  0  0
   16.8223    5.0850   15.2871 C   0  0  0  0  0  0  0  0  0  0  0  0
   15.4999    5.0968   14.9258 C   0  0  0  0  0  0  0  0  0  0  0  0
   15.4210    5.9535   13.8360 C   0  0  0  0  0  0  0  0  0  0  0  0
   16.6104    6.4168   13.5694 O   0  0  0  0  0  0  0  0  0  0  0  0
  1  2  1  0
  2  3  2  0
  2  4  2  0
  2  5  1  0
  5  6  2  0
  6  7  1  0
  7  8  2  0
  8  9  1  0
  9  5  1  0
M  END
>  <shape_align_shape_tanimoto>  (1) 
0.52740258703876364

>  <shape_align_color_tanimoto>  (1) 
0.0040314855172339254

>  <metric>  (1) 
shape

>  <metric_score>  (1) 
0.527

>  <template_pid>  (1) 
3S75

>  <template_shape_score>  (1) 
0.527

>  <template_color_score>  (1) 
0.004

>  <template_combo_score>  (1) 
0.266

$$$$
3S75_color_pose
     RDKit          3D

  9  9  0  0  0  0  0  0  0  0999 V2000
   17.1899    7.7990   14.5356 N   0  0  0  0  0  0  0  0  0  0  0  0
   17.7167    6.1818   14.8093 S   0  0  0  0  0  0  0  0  0  0  0  0
   18.7673    5.8516   13.7632 O   0  0  0  0  0  0  0  0  0  0  0  0
   18.2839    6.0768   16.1861 O   0  0  0  0  0  0  0  0  0  0  0  0
   16.3500    5.0791   14.6303 C   0  0  0  0  0  0  0  0  0  0  0  0
   15.0528    5.4295   14.3205 C   0  0  0  0  0  0  0  0  0  0  0  0
   14.3375    4.2451   14.2876 C   0  0  0  0  0  0  0  0  0  0  0  0
   15.2516    3.2279   14.5832 C   0  0  0  0  0  0  0  0  0  0  0  0
   16.4264    3.7634   14.7784 O   0  0  0  0  0  0  0  0  0  0  0  0
  1  2  1  0
  2  3  2  0
  2  4  2  0
  2  5  1  0
  5  6  2  0
  6  7  1  0
  7  8  2  0
  8  9  1  0
  9  5  1  0
M  END
>  <shape_align_shape_tanimoto>  (2) 
0.51928689702599462

>  <shape_align_color_tanimoto>  (2) 
0.12633590899217778

>  <metric>  (2) 
color

>  <metric_score>  (2) 
0.126

>  <template_pid>  (2) 
3S75

>  <template_shape_score>  (2) 
0.519

>  <template_color_score>  (2) 
0.126

>  <template_combo_score>  (2) 
0.323

$$$$
3S75_combo_pose
     RDKit          3D

  9  9  0  0  0  0  0  0  0  0999 V2000
   17.1899    7.7990   14.5356 N   0  0  0  0  0  0  0  0  0  0  0  0
   17.7167    6.1818   14.8093 S   0  0  0  0  0  0  0  0  0  0  0  0
   18.7673    5.8516   13.7632 O   0  0  0  0  0  0  0  0  0  0  0  0
   18.2839    6.0768   16.1861 O   0  0  0  0  0  0  0  0  0  0  0  0
   16.3500    5.0791   14.6303 C   0  0  0  0  0  0  0  0  0  0  0  0
   15.0528    5.4295   14.3205 C   0  0  0  0  0  0  0  0  0  0  0  0
   14.3375    4.2451   14.2876 C   0  0  0  0  0  0  0  0  0  0  0  0
   15.2516    3.2279   14.5832 C   0  0  0  0  0  0  0  0  0  0  0  0
   16.4264    3.7634   14.7784 O   0  0  0  0  0  0  0  0  0  0  0  0
  1  2  1  0
  2  3  2  0
  2  4  2  0
  2  5  1  0
  5  6  2  0
  6  7  1  0
  7  8  2  0
  8  9  1  0
  9  5  1  0
M  END
>  <shape_align_shape_tanimoto>  (3) 
0.51928689702599462

>  <shape_align_color_tanimoto>  (3) 
0.12633590899217778

>  <metric>  (3) 
combo

>  <metric_score>  (3) 
0.323

>  <template_pid>  (3) 
3S75

>  <template_shape_score>  (3) 
0.519

>  <template_color_score>  (3) 
0.126

>  <template_combo_score>  (3) 
0.323

$$$$
