3MFV_shape_pose
     RDKit          3D

 13 13  0  0  0  0  0  0  0  0999 V2000
  -17.5276  -12.2643   68.7188 N   0  0  0  0  0  0  0  0  0  0  0  0
  -17.9744  -11.1332   67.9466 C   0  0  0  0  0  0  0  0  0  0  0  0
  -19.2607  -10.6908   67.8819 N   0  0  0  0  0  0  0  0  0  0  0  0
  -19.2880   -9.6172   67.0641 C   0  0  0  0  0  0  0  0  0  0  0  0
  -18.0009   -9.3925   66.6169 C   0  0  0  0  0  0  0  0  0  0  0  0
  -17.6053   -8.2798   65.6789 C   0  0  0  0  0  0  0  0  0  0  0  0
  -17.7352   -8.8319   64.2977 C   0  0  0  0  0  0  0  0  0  0  0  0
  -17.3854   -7.8778   63.1998 C   0  0  2  0  0  0  0  0  0  0  0  0
  -16.0379   -7.3936   63.2530 N   0  0  0  0  0  0  0  0  0  0  0  0
  -18.3260   -6.7593   63.0904 C   0  0  0  0  0  0  0  0  0  0  0  0
  -19.1057   -6.3778   64.0012 O   0  0  0  0  0  0  0  0  0  0  0  0
  -18.3835   -6.0379   61.8849 O   0  0  0  0  0  0  0  0  0  0  0  0
  -17.2097  -10.3290   67.1664 N   0  0  0  0  0  0  0  0  0  0  0  0
  1  2  1  0
  2  3  2  0
  3  4  1  0
  4  5  2  0
  5  6  1  0
  6  7  1  0
  7  8  1  0
  8  9  1  1
  8 10  1  0
 10 11  2  0
 10 12  1  0
  5 13  1  0
 13  2  1  0
M  CHG  2   9   1  12  -1
M  END
>  <shape_align_shape_tanimoto>  (1) 
0.81897755316714638

>  <shape_align_color_tanimoto>  (1) 
0.057540084421004424

>  <metric>  (1) 
shape

>  <metric_score>  (1) 
0.819

>  <template_pid>  (1) 
3MFV

>  <template_shape_score>  (1) 
0.819

>  <template_color_score>  (1) 
0.058

>  <template_combo_score>  (1) 
0.438

$$$$
3MFV_color_pose
     RDKit          3D

 13 13  0  0  0  0  0  0  0  0999 V2000
  -18.4378  -12.2402   68.7040 N   0  0  0  0  0  0  0  0  0  0  0  0
  -18.0920  -11.0994   67.9244 C   0  0  0  0  0  0  0  0  0  0  0  0
  -16.8265  -10.8727   67.4885 N   0  0  0  0  0  0  0  0  0  0  0  0
  -16.8190   -9.7093   66.7744 C   0  0  0  0  0  0  0  0  0  0  0  0
  -18.1266   -9.2035   66.7717 C   0  0  0  0  0  0  0  0  0  0  0  0
  -18.6672   -7.9915   66.1722 C   0  0  0  0  0  0  0  0  0  0  0  0
  -19.2073   -8.0534   64.8078 C   0  0  0  0  0  0  0  0  0  0  0  0
  -18.3427   -8.4579   63.6823 C   0  0  2  0  0  0  0  0  0  0  0  0
  -17.7643   -9.7691   63.7476 N   0  0  0  0  0  0  0  0  0  0  0  0
  -17.3239   -7.4187   63.3245 C   0  0  0  0  0  0  0  0  0  0  0  0
  -16.1104   -7.7206   63.5473 O   0  0  0  0  0  0  0  0  0  0  0  0
  -17.7010   -6.1972   62.7799 O   0  0  0  0  0  0  0  0  0  0  0  0
  -18.8739  -10.0947   67.4928 N   0  0  0  0  0  0  0  0  0  0  0  0
  1  2  1  0
  2  3  2  0
  3  4  1  0
  4  5  2  0
  5  6  1  0
  6  7  1  0
  7  8  1  0
  8  9  1  1
  8 10  1  0
 10 11  2  0
 10 12  1  0
  5 13  1  0
 13  2  1  0
M  CHG  2   9   1  12  -1
M  END
>  <shape_align_shape_tanimoto>  (2) 
0.67043562715765925

>  <shape_align_color_tanimoto>  (2) 
0.11400377650090771

>  <metric>  (2) 
color

>  <metric_score>  (2) 
0.114

>  <template_pid>  (2) 
3MFV

>  <template_shape_score>  (2) 
0.670

>  <template_color_score>  (2) 
0.114

>  <template_combo_score>  (2) 
0.392

$$$$
3MFV_combo_pose
     RDKit          3D

 13 13  0  0  0  0  0  0  0  0999 V2000
  -18.5181   -5.9133   61.9514 N   0  0  0  0  0  0  0  0  0  0  0  0
  -17.8957   -6.7919   62.9099 C   0  0  0  0  0  0  0  0  0  0  0  0
  -16.6393   -6.7010   63.3748 N   0  0  0  0  0  0  0  0  0  0  0  0
  -16.4573   -7.7093   64.2474 C   0  0  0  0  0  0  0  0  0  0  0  0
  -17.6563   -8.4243   64.2989 C   0  0  0  0  0  0  0  0  0  0  0  0
  -17.9224   -9.6410   65.1444 C   0  0  0  0  0  0  0  0  0  0  0  0
  -18.4514   -9.2568   66.4603 C   0  0  0  0  0  0  0  0  0  0  0  0
  -18.7885  -10.2705   67.4627 C   0  0  2  0  0  0  0  0  0  0  0  0
  -19.2823   -9.5831   68.6482 N   0  0  0  0  0  0  0  0  0  0  0  0
  -17.7110  -11.1573   67.9211 C   0  0  0  0  0  0  0  0  0  0  0  0
  -16.5095  -10.9161   67.5996 O   0  0  0  0  0  0  0  0  0  0  0  0
  -18.0672  -12.2516   68.7088 O   0  0  0  0  0  0  0  0  0  0  0  0
  -18.5403   -7.8348   63.4567 N   0  0  0  0  0  0  0  0  0  0  0  0
  1  2  1  0
  2  3  2  0
  3  4  1  0
  4  5  2  0
  5  6  1  0
  6  7  1  0
  7  8  1  0
  8  9  1  1
  8 10  1  0
 10 11  2  0
 10 12  1  0
  5 13  1  0
 13  2  1  0
M  CHG  2   9   1  12  -1
M  END
>  <shape_align_shape_tanimoto>  (3) 
0.80559355368964236

>  <shape_align_color_tanimoto>  (3) 
0.07897347230869424

>  <metric>  (3) 
combo

>  <metric_score>  (3) 
0.442

>  <template_pid>  (3) 
3MFV

>  <template_shape_score>  (3) 
0.806

>  <template_color_score>  (3) 
0.079

>  <template_combo_score>  (3) 
0.442

$$$$
