2JEW_shape_pose
     RDKit          3D

 17 17  0  0  0  0  0  0  0  0999 V2000
   51.1797   46.5365   32.3633 C   0  0  0  0  0  0  0  0  0  0  0  0
   52.3868   47.3590   32.7117 C   0  0  0  0  0  0  0  0  0  0  0  0
   52.1372   48.3147   33.8331 C   0  0  0  0  0  0  0  0  0  0  0  0
   51.0877   49.2686   33.5536 N   0  0  0  0  0  0  0  0  0  0  0  0
   51.2120   50.4824   32.9825 C   0  0  0  0  0  0  0  0  0  0  0  0
   49.9827   51.0371   32.9113 N   0  0  0  0  0  0  0  0  0  0  0  0
   49.0598   50.1973   33.4301 C   0  0  0  0  0  0  0  0  0  0  0  0
   47.6079   50.4877   33.5086 C   0  0  0  0  0  0  0  0  0  0  0  0
   47.3273   51.1765   34.8257 C   0  0  2  0  0  0  0  0  0  0  0  0
   47.7069   50.3323   36.0084 C   0  0  0  0  0  0  0  0  0  0  0  0
   47.4526   50.9848   37.3187 C   0  0  0  0  0  0  0  0  0  0  0  0
   47.8243   50.1586   38.5202 C   0  0  0  0  0  0  0  0  0  0  0  0
   47.1423   48.9098   38.6363 N   0  0  0  0  0  0  0  0  0  0  0  0
   45.9082   51.6536   34.8795 C   0  0  0  0  0  0  0  0  0  0  0  0
   45.0338   51.1207   35.6051 O   0  0  0  0  0  0  0  0  0  0  0  0
   45.5562   52.7390   34.0829 O   0  0  0  0  0  0  0  0  0  0  0  0
   49.7681   49.0868   33.8312 C   0  0  0  0  0  0  0  0  0  0  0  0
  1  2  1  0
  2  3  1  0
  3  4  1  0
  4  5  1  0
  5  6  2  0
  6  7  1  0
  7  8  1  0
  9  8  1  6
  9 10  1  0
 10 11  1  0
 11 12  1  0
 12 13  1  0
  9 14  1  0
 14 15  2  0
 14 16  1  0
  7 17  2  0
 17  4  1  0
M  CHG  2  13   1  16  -1
M  END
>  <shape_align_shape_tanimoto>  (1) 
0.67848677097465138

>  <shape_align_color_tanimoto>  (1) 
0.006749212095882709

>  <metric>  (1) 
shape

>  <metric_score>  (1) 
0.678

>  <template_pid>  (1) 
2JEW

>  <template_shape_score>  (1) 
0.678

>  <template_color_score>  (1) 
0.007

>  <template_combo_score>  (1) 
0.343

$$$$
2JEW_color_pose
     RDKit          3D

 17 17  0  0  0  0  0  0  0  0999 V2000
   48.1347   49.0131   40.2895 C   0  0  0  0  0  0  0  0  0  0  0  0
   48.0502   49.7373   38.9700 C   0  0  0  0  0  0  0  0  0  0  0  0
   46.6398   49.7541   38.4221 C   0  0  0  0  0  0  0  0  0  0  0  0
   46.5741   50.4524   37.1554 N   0  0  0  0  0  0  0  0  0  0  0  0
   46.3549   51.7433   36.8836 C   0  0  0  0  0  0  0  0  0  0  0  0
   46.3857   51.9225   35.5521 N   0  0  0  0  0  0  0  0  0  0  0  0
   46.6312   50.7217   34.9265 C   0  0  0  0  0  0  0  0  0  0  0  0
   46.6720   50.5880   33.4802 C   0  0  0  0  0  0  0  0  0  0  0  0
   47.8981   50.8083   32.7167 C   0  0  2  0  0  0  0  0  0  0  0  0
   49.1192   50.0085   32.9042 C   0  0  0  0  0  0  0  0  0  0  0  0
   49.8170   49.9825   34.1979 C   0  0  0  0  0  0  0  0  0  0  0  0
   51.0893   49.1464   34.1989 C   0  0  0  0  0  0  0  0  0  0  0  0
   52.0926   49.5497   33.2920 N   0  0  0  0  0  0  0  0  0  0  0  0
   48.2029   52.2926   32.6694 C   0  0  0  0  0  0  0  0  0  0  0  0
   47.7866   53.0724   33.5579 O   0  0  0  0  0  0  0  0  0  0  0  0
   48.9722   52.7714   31.5912 O   0  0  0  0  0  0  0  0  0  0  0  0
   46.7409   49.8356   35.9746 C   0  0  0  0  0  0  0  0  0  0  0  0
  1  2  1  0
  2  3  1  0
  3  4  1  0
  4  5  1  0
  5  6  2  0
  6  7  1  0
  7  8  1  0
  9  8  1  1
  9 10  1  0
 10 11  1  0
 11 12  1  0
 12 13  1  0
  9 14  1  0
 14 15  2  0
 14 16  1  0
  7 17  2  0
 17  4  1  0
M  CHG  2  13   1  16  -1
M  END
>  <shape_align_shape_tanimoto>  (2) 
0.54904537364989348

>  <shape_align_color_tanimoto>  (2) 
0.14245434470326959

>  <metric>  (2) 
color

>  <metric_score>  (2) 
0.142

>  <template_pid>  (2) 
2JEW

>  <template_shape_score>  (2) 
0.549

>  <template_color_score>  (2) 
0.142

>  <template_combo_score>  (2) 
0.346

$$$$
2JEW_combo_pose
     RDKit          3D

 17 17  0  0  0  0  0  0  0  0999 V2000
   47.5130   48.6917   41.4508 C   0  0  0  0  0  0  0  0  0  0  0  0
   47.9013   49.1018   40.0664 C   0  0  0  0  0  0  0  0  0  0  0  0
   46.8027   49.8177   39.3226 C   0  0  0  0  0  0  0  0  0  0  0  0
   47.2960   50.1637   37.9985 N   0  0  0  0  0  0  0  0  0  0  0  0
   47.9268   51.2799   37.6083 C   0  0  0  0  0  0  0  0  0  0  0  0
   48.2136   51.2007   36.2960 N   0  0  0  0  0  0  0  0  0  0  0  0
   47.7579   50.0178   35.8489 C   0  0  0  0  0  0  0  0  0  0  0  0
   47.8110   49.4257   34.4887 C   0  0  0  0  0  0  0  0  0  0  0  0
   48.4797   50.2928   33.4696 C   0  0  2  0  0  0  0  0  0  0  0  0
   49.8882   50.6254   33.7708 C   0  0  0  0  0  0  0  0  0  0  0  0
   50.8213   49.4717   33.8929 C   0  0  0  0  0  0  0  0  0  0  0  0
   50.9482   48.6161   32.6874 C   0  0  0  0  0  0  0  0  0  0  0  0
   51.9063   47.5504   33.0208 N   0  0  0  0  0  0  0  0  0  0  0  0
   47.7191   51.5962   33.4804 C   0  0  0  0  0  0  0  0  0  0  0  0
   46.5406   51.6467   33.0329 O   0  0  0  0  0  0  0  0  0  0  0  0
   48.2602   52.7633   33.9664 O   0  0  0  0  0  0  0  0  0  0  0  0
   47.1814   49.3671   36.9202 C   0  0  0  0  0  0  0  0  0  0  0  0
  1  2  1  0
  2  3  1  0
  3  4  1  0
  4  5  1  0
  5  6  2  0
  6  7  1  0
  7  8  1  0
  9  8  1  1
  9 10  1  0
 10 11  1  0
 11 12  1  0
 12 13  1  0
  9 14  1  0
 14 15  2  0
 14 16  1  0
  7 17  2  0
 17  4  1  0
M  CHG  2  13   1  16  -1
M  END
>  <shape_align_shape_tanimoto>  (3) 
0.64986906204200934

>  <shape_align_color_tanimoto>  (3) 
0.081744768300279075

>  <metric>  (3) 
combo

>  <metric_score>  (3) 
0.366

>  <template_pid>  (3) 
2JEW

>  <template_shape_score>  (3) 
0.650

>  <template_color_score>  (3) 
0.082

>  <template_combo_score>  (3) 
0.366

$$$$
