1XT3_shape_pose
     RDKit          3D

105110  0  0  0  0  0  0  0  0999 V2000
  -16.0274   -2.0206   -7.3651 O   0  0  0  0  0  0  0  0  0  0  0  0
  -16.1110   -3.1716   -6.8917 C   0  0  0  0  0  0  0  0  0  0  0  0
  -14.9404   -3.7739   -6.4472 O   0  0  0  0  0  0  0  0  0  0  0  0
  -17.3769   -3.9180   -6.7765 C   0  0  0  0  0  0  0  0  0  0  0  0
  -17.3475   -5.1563   -6.2523 C   0  0  0  0  0  0  0  0  0  0  0  0
  -18.5449   -5.9820   -6.0904 C   0  0  2  0  0  0  0  0  0  0  0  0
  -18.2893   -7.2982   -6.3380 O   0  0  0  0  0  0  0  0  0  0  0  0
  -19.7036   -5.4231   -6.9612 C   0  0  1  0  0  0  0  0  0  0  0  0
  -20.7804   -6.1994   -6.6243 O   0  0  0  0  0  0  0  0  0  0  0  0
  -21.2576   -7.2959   -7.7761 S   0  0  0  0  0  0  0  0  0  0  0  0
  -22.6680   -7.7647   -7.4453 O   0  0  0  0  0  0  0  0  0  0  0  0
  -20.3626   -8.5242   -7.7726 O   0  0  0  0  0  0  0  0  0  0  0  0
  -21.2654   -6.7155   -9.3269 O   0  0  0  0  0  0  0  0  0  0  0  0
  -19.7791   -3.9789   -6.6438 C   0  0  2  0  0  0  0  0  0  0  0  0
  -20.9017   -3.2846   -7.0353 O   0  0  0  0  0  0  0  0  0  0  0  0
  -21.4815   -2.6665   -5.9678 C   0  0  1  0  0  0  0  0  0  0  0  0
  -21.4516   -1.1274   -6.0496 C   0  0  2  0  0  0  0  0  0  0  0  0
  -20.1527   -0.6886   -5.9642 O   0  0  0  0  0  0  0  0  0  0  0  0
  -22.2902   -0.5753   -4.8823 C   0  0  1  0  0  0  0  0  0  0  0  0
  -23.5615   -0.0734   -5.3022 N   0  0  0  0  0  0  0  0  0  0  0  0
  -23.6900    1.6420   -5.1274 S   0  0  0  0  0  0  0  0  0  0  0  0
  -23.6052    2.0244   -3.6800 O   0  0  0  0  0  0  0  0  0  0  0  0
  -25.0523    2.0150   -5.7049 O   0  0  0  0  0  0  0  0  0  0  0  0
  -22.5527    2.4244   -6.0760 O   0  0  0  0  0  0  0  0  0  0  0  0
  -22.3618   -1.6434   -3.8622 C   0  0  1  0  0  0  0  0  0  0  0  0
  -22.9385   -1.3485   -2.6274 O   0  0  0  0  0  0  0  0  0  0  0  0
  -21.9702   -1.2615   -1.6295 C   0  0  1  0  0  0  0  0  0  0  0  0
  -22.2403   -0.3083   -0.5920 C   0  0  2  0  0  0  0  0  0  0  0  0
  -21.4217    0.8275   -0.8076 O   0  0  0  0  0  0  0  0  0  0  0  0
  -22.1757   -0.7385    0.8604 C   0  0  1  0  0  0  0  0  0  0  0  0
  -23.4127   -0.5605    1.4564 O   0  0  0  0  0  0  0  0  0  0  0  0
  -23.3402    0.7339    2.5143 S   0  0  0  0  0  0  0  0  0  0  0  0
  -23.1706    0.2082    3.9181 O   0  0  0  0  0  0  0  0  0  0  0  0
  -24.6369    1.5215    2.4433 O   0  0  0  0  0  0  0  0  0  0  0  0
  -22.0175    1.7150    2.2179 O   0  0  0  0  0  0  0  0  0  0  0  0
  -21.5303   -2.0023    1.1159 C   0  0  2  0  0  0  0  0  0  0  0  0
  -20.5189   -2.0352    2.0879 O   0  0  0  0  0  0  0  0  0  0  0  0
  -20.2309   -3.3013    2.5541 C   0  0  1  0  0  0  0  0  0  0  0  0
  -18.7586   -3.4940    2.0987 C   0  0  2  0  0  0  0  0  0  0  0  0
  -18.7122   -4.0369    0.8172 O   0  0  0  0  0  0  0  0  0  0  0  0
  -18.1076   -4.4254    3.0607 C   0  0  1  0  0  0  0  0  0  0  0  0
  -17.5409   -3.8222    4.2289 N   0  0  0  0  0  0  0  0  0  0  0  0
  -15.8597   -4.1545    4.4243 S   0  0  0  0  0  0  0  0  0  0  0  0
  -15.0988   -3.6467    3.2508 O   0  0  0  0  0  0  0  0  0  0  0  0
  -15.3992   -3.4893    5.7097 O   0  0  0  0  0  0  0  0  0  0  0  0
  -15.5564   -5.8117    4.5878 O   0  0  0  0  0  0  0  0  0  0  0  0
  -19.1811   -5.4482    3.5519 C   0  0  1  0  0  0  0  0  0  0  0  0
  -18.4642   -6.5400    3.9224 O   0  0  0  0  0  0  0  0  0  0  0  0
  -18.7395   -7.6539    3.1088 C   0  0  1  0  0  0  0  0  0  0  0  0
  -17.6591   -7.8036    2.0515 C   0  0  2  0  0  0  0  0  0  0  0  0
  -18.1726   -7.3455    0.8305 O   0  0  0  0  0  0  0  0  0  0  0  0
  -17.4311   -9.2694    1.9017 C   0  0  1  0  0  0  0  0  0  0  0  0
  -16.5954   -9.6429    0.8916 O   0  0  0  0  0  0  0  0  0  0  0  0
  -17.4310  -10.7751   -0.0744 S   0  0  0  0  0  0  0  0  0  0  0  0
  -18.8141  -10.2435   -0.3138 O   0  0  0  0  0  0  0  0  0  0  0  0
  -16.7102  -11.0936   -1.3261 O   0  0  0  0  0  0  0  0  0  0  0  0
  -17.6072  -12.2295    0.7947 O   0  0  0  0  0  0  0  0  0  0  0  0
  -17.0276   -9.7636    3.2892 C   0  0  2  0  0  0  0  0  0  0  0  0
  -16.3127  -10.9102    3.1080 O   0  0  0  0  0  0  0  0  0  0  0  0
  -15.0101  -10.8760    3.5680 C   0  0  1  0  0  0  0  0  0  0  0  0
  -14.8245  -11.9825    4.5589 C   0  0  2  0  0  0  0  0  0  0  0  0
  -14.5509  -11.4457    5.8410 O   0  0  0  0  0  0  0  0  0  0  0  0
  -13.7854  -12.9945    4.2767 C   0  0  1  0  0  0  0  0  0  0  0  0
  -14.3880  -14.3293    4.4617 N   0  0  0  0  0  0  0  0  0  0  0  0
  -13.5895  -15.2476    5.6620 S   0  0  0  0  0  0  0  0  0  0  0  0
  -13.6527  -14.6414    7.0354 O   0  0  0  0  0  0  0  0  0  0  0  0
  -14.2621  -16.5830    5.7385 O   0  0  0  0  0  0  0  0  0  0  0  0
  -11.9712  -15.5275    5.2202 O   0  0  0  0  0  0  0  0  0  0  0  0
  -13.1808  -13.0246    2.9089 C   0  0  1  0  0  0  0  0  0  0  0  0
  -13.2480  -14.3154    2.3115 O   0  0  0  0  0  0  0  0  0  0  0  0
  -13.8142  -12.1989    2.0286 O   0  0  0  0  0  0  0  0  0  0  0  0
  -13.9607  -10.8992    2.4797 C   0  0  2  0  0  0  0  0  0  0  0  0
  -12.6178  -10.3947    3.0444 C   0  0  0  0  0  0  0  0  0  0  0  0
  -12.7552   -9.0817    3.4892 O   0  0  0  0  0  0  0  0  0  0  0  0
  -11.3027   -8.4854    4.0829 S   0  0  0  0  0  0  0  0  0  0  0  0
  -11.3212   -8.4532    5.5742 O   0  0  0  0  0  0  0  0  0  0  0  0
  -10.1448   -9.3468    3.6788 O   0  0  0  0  0  0  0  0  0  0  0  0
  -11.0222   -6.9366    3.4741 O   0  0  0  0  0  0  0  0  0  0  0  0
  -18.1899   -9.8803    3.9854 O   0  0  0  0  0  0  0  0  0  0  0  0
  -19.0940   -8.8416    3.8820 C   0  0  1  0  0  0  0  0  0  0  0  0
  -19.6662   -8.5045    5.2472 C   0  0  0  0  0  0  0  0  0  0  0  0
  -20.8143   -7.9505    5.2085 O   0  0  0  0  0  0  0  0  0  0  0  0
  -18.9885   -8.7801    6.4076 O   0  0  0  0  0  0  0  0  0  0  0  0
  -19.9038   -4.7459    4.4732 O   0  0  0  0  0  0  0  0  0  0  0  0
  -20.2825   -3.4765    4.0163 C   0  0  2  0  0  0  0  0  0  0  0  0
  -21.7095   -3.2683    4.5571 C   0  0  0  0  0  0  0  0  0  0  0  0
  -21.5800   -3.3590    5.9485 O   0  0  0  0  0  0  0  0  0  0  0  0
  -23.0228   -2.8646    6.6400 S   0  0  0  0  0  0  0  0  0  0  0  0
  -23.1827   -1.3497    6.6133 O   0  0  0  0  0  0  0  0  0  0  0  0
  -24.2344   -3.4294    5.9669 O   0  0  0  0  0  0  0  0  0  0  0  0
  -23.1079   -3.3180    8.2653 O   0  0  0  0  0  0  0  0  0  0  0  0
  -20.7506   -2.3965   -0.0849 O   0  0  0  0  0  0  0  0  0  0  0  0
  -21.7238   -2.6594   -1.0282 C   0  0  1  0  0  0  0  0  0  0  0  0
  -22.9544   -3.2809   -0.5924 C   0  0  0  0  0  0  0  0  0  0  0  0
  -22.9184   -4.5299   -0.2965 O   0  0  0  0  0  0  0  0  0  0  0  0
  -24.1944   -2.6886   -0.4504 O   0  0  0  0  0  0  0  0  0  0  0  0
  -23.0353   -2.7965   -4.2860 O   0  0  0  0  0  0  0  0  0  0  0  0
  -22.9146   -2.9841   -5.6722 C   0  0  2  0  0  0  0  0  0  0  0  0
  -23.4199   -4.3171   -6.0709 C   0  0  0  0  0  0  0  0  0  0  0  0
  -23.3112   -4.4357   -7.4700 O   0  0  0  0  0  0  0  0  0  0  0  0
  -24.6846   -5.1880   -8.0888 S   0  0  0  0  0  0  0  0  0  0  0  0
  -25.2989   -6.0923   -7.0737 O   0  0  0  0  0  0  0  0  0  0  0  0
  -25.6821   -4.0969   -8.4676 O   0  0  0  0  0  0  0  0  0  0  0  0
  -24.2551   -5.9828   -9.4941 O   0  0  0  0  0  0  0  0  0  0  0  0
  -18.5931   -3.3708   -7.1970 O   0  0  0  0  0  0  0  0  0  0  0  0
  1  2  2  0
  2  3  1  0
  2  4  1  0
  4  5  2  0
  5  6  1  0
  6  7  1  6
  6  8  1  0
  8  9  1  1
  9 10  1  0
 10 11  2  0
 10 12  2  0
 10 13  1  0
  8 14  1  0
 14 15  1  6
 16 15  1  6
 16 17  1  0
 17 18  1  1
 17 19  1  0
 19 20  1  6
 20 21  1  0
 21 22  2  0
 21 23  2  0
 21 24  1  0
 19 25  1  0
 25 26  1  1
 27 26  1  6
 27 28  1  0
 28 29  1  1
 28 30  1  0
 30 31  1  6
 31 32  1  0
 32 33  2  0
 32 34  2  0
 32 35  1  0
 30 36  1  0
 36 37  1  1
 38 37  1  1
 38 39  1  0
 39 40  1  6
 39 41  1  0
 41 42  1  1
 42 43  1  0
 43 44  2  0
 43 45  2  0
 43 46  1  0
 41 47  1  0
 47 48  1  1
 49 48  1  1
 49 50  1  0
 50 51  1  6
 50 52  1  0
 52 53  1  6
 53 54  1  0
 54 55  2  0
 54 56  2  0
 54 57  1  0
 52 58  1  0
 58 59  1  6
 60 59  1  6
 60 61  1  0
 61 62  1  1
 61 63  1  0
 63 64  1  6
 64 65  1  0
 65 66  2  0
 65 67  2  0
 65 68  1  0
 63 69  1  0
 69 70  1  6
 69 71  1  0
 71 72  1  0
 72 73  1  1
 73 74  1  0
 74 75  1  0
 75 76  2  0
 75 77  2  0
 75 78  1  0
 58 79  1  0
 79 80  1  0
 80 81  1  1
 81 82  2  0
 81 83  1  0
 47 84  1  0
 84 85  1  0
 85 86  1  6
 86 87  1  0
 87 88  1  0
 88 89  2  0
 88 90  2  0
 88 91  1  0
 36 92  1  0
 92 93  1  0
 93 94  1  1
 94 95  2  0
 94 96  1  0
 25 97  1  0
 97 98  1  0
 98 99  1  1
 99100  1  0
100101  1  0
101102  2  0
101103  2  0
101104  1  0
 14105  1  0
105  4  1  0
 98 16  1  0
 93 27  1  0
 85 38  1  0
 80 49  1  0
 72 60  1  0
M  CHG  8   3  -1  13  -1  24  -1  35  -1  46  -1  57  -1  68  -1  78  -1
M  CHG  4  83  -1  91  -1  96  -1 104  -1
M  END
>  <shape_align_shape_tanimoto>  (1) 
0.24146239324812371

>  <shape_align_color_tanimoto>  (1) 
0.031593053822795182

>  <metric>  (1) 
shape

>  <metric_score>  (1) 
0.241

>  <template_pid>  (1) 
1XT3

>  <template_shape_score>  (1) 
0.241

>  <template_color_score>  (1) 
0.032

>  <template_combo_score>  (1) 
0.137

$$$$
1XT3_color_pose
     RDKit          3D

105110  0  0  0  0  0  0  0  0999 V2000
  -26.2528   -4.0526   12.3136 O   0  0  0  0  0  0  0  0  0  0  0  0
  -26.7107   -2.8699   12.1874 C   0  0  0  0  0  0  0  0  0  0  0  0
  -27.7442   -2.5185   13.0267 O   0  0  0  0  0  0  0  0  0  0  0  0
  -26.1451   -1.9365   11.1876 C   0  0  0  0  0  0  0  0  0  0  0  0
  -26.6748   -0.7296   11.1015 C   0  0  0  0  0  0  0  0  0  0  0  0
  -26.0948    0.1867   10.0949 C   0  0  2  0  0  0  0  0  0  0  0  0
  -26.7742   -0.0978    8.8932 O   0  0  0  0  0  0  0  0  0  0  0  0
  -24.6278   -0.0572    9.8803 C   0  0  1  0  0  0  0  0  0  0  0  0
  -23.9647    0.4466   11.0264 O   0  0  0  0  0  0  0  0  0  0  0  0
  -22.9195    1.6872   10.6163 S   0  0  0  0  0  0  0  0  0  0  0  0
  -21.5478    1.1722   10.2823 O   0  0  0  0  0  0  0  0  0  0  0  0
  -23.3801    2.5046    9.4673 O   0  0  0  0  0  0  0  0  0  0  0  0
  -22.7569    2.6898   11.9615 O   0  0  0  0  0  0  0  0  0  0  0  0
  -24.2890   -1.4874    9.6412 C   0  0  2  0  0  0  0  0  0  0  0  0
  -24.3159   -1.8911    8.3095 O   0  0  0  0  0  0  0  0  0  0  0  0
  -23.1111   -2.3189    7.8339 C   0  0  1  0  0  0  0  0  0  0  0  0
  -23.0377   -3.8216    7.6880 C   0  0  2  0  0  0  0  0  0  0  0  0
  -22.4376   -4.4433    8.7861 O   0  0  0  0  0  0  0  0  0  0  0  0
  -22.4155   -4.2163    6.3905 C   0  0  1  0  0  0  0  0  0  0  0  0
  -23.3979   -4.4765    5.3567 N   0  0  0  0  0  0  0  0  0  0  0  0
  -23.6350   -6.1745    5.1280 S   0  0  0  0  0  0  0  0  0  0  0  0
  -22.4160   -6.8784    4.6207 O   0  0  0  0  0  0  0  0  0  0  0  0
  -24.6999   -6.3434    4.0805 O   0  0  0  0  0  0  0  0  0  0  0  0
  -24.2143   -6.9046    6.5312 O   0  0  0  0  0  0  0  0  0  0  0  0
  -21.2233   -3.4466    6.0340 C   0  0  1  0  0  0  0  0  0  0  0  0
  -20.8165   -3.5332    4.6820 O   0  0  0  0  0  0  0  0  0  0  0  0
  -19.5234   -4.0264    4.5629 C   0  0  1  0  0  0  0  0  0  0  0  0
  -19.5368   -5.1959    3.6131 C   0  0  2  0  0  0  0  0  0  0  0  0
  -18.2054   -5.4556    3.2171 O   0  0  0  0  0  0  0  0  0  0  0  0
  -20.2356   -4.7574    2.3178 C   0  0  1  0  0  0  0  0  0  0  0  0
  -21.6144   -4.9037    2.3861 O   0  0  0  0  0  0  0  0  0  0  0  0
  -22.2149   -5.9050    1.1777 S   0  0  0  0  0  0  0  0  0  0  0  0
  -21.4090   -5.7050   -0.0793 O   0  0  0  0  0  0  0  0  0  0  0  0
  -22.0062   -7.3416    1.6039 O   0  0  0  0  0  0  0  0  0  0  0  0
  -23.8383   -5.6671    0.9448 O   0  0  0  0  0  0  0  0  0  0  0  0
  -19.7969   -3.3337    2.0524 C   0  0  2  0  0  0  0  0  0  0  0  0
  -19.7871   -3.0385    0.7171 O   0  0  0  0  0  0  0  0  0  0  0  0
  -20.5047   -1.9274    0.3423 C   0  0  1  0  0  0  0  0  0  0  0  0
  -19.6996   -1.0338   -0.5023 C   0  0  2  0  0  0  0  0  0  0  0  0
  -19.8981    0.3252   -0.3069 O   0  0  0  0  0  0  0  0  0  0  0  0
  -19.8705   -1.3180   -1.9950 C   0  0  1  0  0  0  0  0  0  0  0  0
  -19.0004   -2.4253   -2.3750 N   0  0  0  0  0  0  0  0  0  0  0  0
  -17.6901   -1.8975   -3.3530 S   0  0  0  0  0  0  0  0  0  0  0  0
  -16.8579   -0.8653   -2.5965 O   0  0  0  0  0  0  0  0  0  0  0  0
  -16.7469   -3.0219   -3.6793 O   0  0  0  0  0  0  0  0  0  0  0  0
  -18.1921   -1.2226   -4.7898 O   0  0  0  0  0  0  0  0  0  0  0  0
  -21.2607   -1.5108   -2.3962 C   0  0  1  0  0  0  0  0  0  0  0  0
  -21.3082   -2.0631   -3.7008 O   0  0  0  0  0  0  0  0  0  0  0  0
  -22.2199   -1.2789   -4.4615 C   0  0  1  0  0  0  0  0  0  0  0  0
  -21.5636   -0.8602   -5.7097 C   0  0  2  0  0  0  0  0  0  0  0  0
  -21.0021    0.4549   -5.5797 O   0  0  0  0  0  0  0  0  0  0  0  0
  -22.4852   -0.7711   -6.8791 C   0  0  1  0  0  0  0  0  0  0  0  0
  -22.1792   -1.8801   -7.7057 O   0  0  0  0  0  0  0  0  0  0  0  0
  -21.5567   -1.3726   -9.1801 S   0  0  0  0  0  0  0  0  0  0  0  0
  -21.6002   -2.5179  -10.1459 O   0  0  0  0  0  0  0  0  0  0  0  0
  -22.3250   -0.2354   -9.7763 O   0  0  0  0  0  0  0  0  0  0  0  0
  -19.9693   -0.8805   -8.9779 O   0  0  0  0  0  0  0  0  0  0  0  0
  -23.9108   -0.7499   -6.4925 C   0  0  2  0  0  0  0  0  0  0  0  0
  -24.2267    0.5175   -5.9272 O   0  0  0  0  0  0  0  0  0  0  0  0
  -25.2844    1.0844   -6.5737 C   0  0  1  0  0  0  0  0  0  0  0  0
  -26.4394    1.0445   -5.5116 C   0  0  2  0  0  0  0  0  0  0  0  0
  -26.7692   -0.2892   -5.2852 O   0  0  0  0  0  0  0  0  0  0  0  0
  -27.5621    1.8853   -6.0291 C   0  0  1  0  0  0  0  0  0  0  0  0
  -27.8470    3.0619   -5.2256 N   0  0  0  0  0  0  0  0  0  0  0  0
  -29.4867    2.8556   -4.6585 S   0  0  0  0  0  0  0  0  0  0  0  0
  -29.9205    4.0812   -3.9196 O   0  0  0  0  0  0  0  0  0  0  0  0
  -30.3884    2.6346   -5.8538 O   0  0  0  0  0  0  0  0  0  0  0  0
  -29.5756    1.4737   -3.7065 O   0  0  0  0  0  0  0  0  0  0  0  0
  -27.3635    2.2679   -7.4865 C   0  0  1  0  0  0  0  0  0  0  0  0
  -28.4259    3.1088   -7.8300 O   0  0  0  0  0  0  0  0  0  0  0  0
  -26.1985    2.9820   -7.6879 O   0  0  0  0  0  0  0  0  0  0  0  0
  -25.1192    2.5122   -6.8861 C   0  0  2  0  0  0  0  0  0  0  0  0
  -23.8742    2.9507   -7.5860 C   0  0  0  0  0  0  0  0  0  0  0  0
  -22.7518    2.6174   -6.8780 O   0  0  0  0  0  0  0  0  0  0  0  0
  -21.3619    3.2548   -7.5927 S   0  0  0  0  0  0  0  0  0  0  0  0
  -21.7318    4.3973   -8.5023 O   0  0  0  0  0  0  0  0  0  0  0  0
  -20.4581    3.7142   -6.4958 O   0  0  0  0  0  0  0  0  0  0  0  0
  -20.5716    2.1153   -8.5079 O   0  0  0  0  0  0  0  0  0  0  0  0
  -24.3077   -1.6947   -5.5780 O   0  0  0  0  0  0  0  0  0  0  0  0
  -23.3813   -2.2204   -4.7511 C   0  0  1  0  0  0  0  0  0  0  0  0
  -22.9697   -3.6144   -5.0002 C   0  0  0  0  0  0  0  0  0  0  0  0
  -22.3885   -4.2591   -4.0787 O   0  0  0  0  0  0  0  0  0  0  0  0
  -23.1732   -4.2940   -6.1898 O   0  0  0  0  0  0  0  0  0  0  0  0
  -21.8008   -2.5366   -1.5980 O   0  0  0  0  0  0  0  0  0  0  0  0
  -21.8637   -2.2655   -0.2737 C   0  0  2  0  0  0  0  0  0  0  0  0
  -22.7766   -1.0604   -0.0428 C   0  0  0  0  0  0  0  0  0  0  0  0
  -22.8296   -0.8014    1.3364 O   0  0  0  0  0  0  0  0  0  0  0  0
  -23.2643    0.7928    1.6245 S   0  0  0  0  0  0  0  0  0  0  0  0
  -22.6365    1.3254    2.8747 O   0  0  0  0  0  0  0  0  0  0  0  0
  -22.6748    1.6107    0.4832 O   0  0  0  0  0  0  0  0  0  0  0  0
  -24.9293    0.9169    1.6348 O   0  0  0  0  0  0  0  0  0  0  0  0
  -18.4967   -3.2028    2.5611 O   0  0  0  0  0  0  0  0  0  0  0  0
  -18.5329   -3.0444    3.9576 C   0  0  1  0  0  0  0  0  0  0  0  0
  -18.7423   -1.6540    4.3441 C   0  0  0  0  0  0  0  0  0  0  0  0
  -19.1966   -0.7570    3.5996 O   0  0  0  0  0  0  0  0  0  0  0  0
  -18.4159   -1.2601    5.6502 O   0  0  0  0  0  0  0  0  0  0  0  0
  -21.2944   -2.1184    6.3528 O   0  0  0  0  0  0  0  0  0  0  0  0
  -22.6504   -1.7505    6.5229 C   0  0  2  0  0  0  0  0  0  0  0  0
  -22.8611   -0.2651    6.3596 C   0  0  0  0  0  0  0  0  0  0  0  0
  -24.2017    0.0202    6.4645 O   0  0  0  0  0  0  0  0  0  0  0  0
  -24.6334    1.5632    6.0415 S   0  0  0  0  0  0  0  0  0  0  0  0
  -23.4909    2.4944    5.8895 O   0  0  0  0  0  0  0  0  0  0  0  0
  -25.5004    2.1210    7.1631 O   0  0  0  0  0  0  0  0  0  0  0  0
  -25.6386    1.5723    4.6737 O   0  0  0  0  0  0  0  0  0  0  0  0
  -25.0981   -2.3743   10.4031 O   0  0  0  0  0  0  0  0  0  0  0  0
  1  2  2  0
  2  3  1  0
  2  4  1  0
  4  5  2  0
  5  6  1  0
  6  7  1  6
  6  8  1  0
  8  9  1  1
  9 10  1  0
 10 11  2  0
 10 12  2  0
 10 13  1  0
  8 14  1  0
 14 15  1  6
 16 15  1  6
 16 17  1  0
 17 18  1  1
 17 19  1  0
 19 20  1  6
 20 21  1  0
 21 22  2  0
 21 23  2  0
 21 24  1  0
 19 25  1  0
 25 26  1  6
 27 26  1  6
 27 28  1  0
 28 29  1  6
 28 30  1  0
 30 31  1  1
 31 32  1  0
 32 33  2  0
 32 34  2  0
 32 35  1  0
 30 36  1  0
 36 37  1  6
 38 37  1  6
 38 39  1  0
 39 40  1  6
 39 41  1  0
 41 42  1  1
 42 43  1  0
 43 44  2  0
 43 45  2  0
 43 46  1  0
 41 47  1  0
 47 48  1  6
 49 48  1  1
 49 50  1  0
 50 51  1  1
 50 52  1  0
 52 53  1  6
 53 54  1  0
 54 55  2  0
 54 56  2  0
 54 57  1  0
 52 58  1  0
 58 59  1  1
 60 59  1  1
 60 61  1  0
 61 62  1  6
 61 63  1  0
 63 64  1  1
 64 65  1  0
 65 66  2  0
 65 67  2  0
 65 68  1  0
 63 69  1  0
 69 70  1  1
 69 71  1  0
 71 72  1  0
 72 73  1  6
 73 74  1  0
 74 75  1  0
 75 76  2  0
 75 77  2  0
 75 78  1  0
 58 79  1  0
 79 80  1  0
 80 81  1  6
 81 82  2  0
 81 83  1  0
 47 84  1  0
 84 85  1  0
 85 86  1  6
 86 87  1  0
 87 88  1  0
 88 89  2  0
 88 90  2  0
 88 91  1  0
 36 92  1  0
 92 93  1  0
 93 94  1  6
 94 95  2  0
 94 96  1  0
 25 97  1  0
 97 98  1  0
 98 99  1  1
 99100  1  0
100101  1  0
101102  2  0
101103  2  0
101104  1  0
 14105  1  0
105  4  1  0
 98 16  1  0
 93 27  1  0
 85 38  1  0
 80 49  1  0
 72 60  1  0
M  CHG  8   3  -1  13  -1  24  -1  35  -1  46  -1  57  -1  68  -1  78  -1
M  CHG  4  83  -1  91  -1  96  -1 104  -1
M  END
>  <shape_align_shape_tanimoto>  (2) 
0.20512044416233002

>  <shape_align_color_tanimoto>  (2) 
0.05549273144459279

>  <metric>  (2) 
color

>  <metric_score>  (2) 
0.055

>  <template_pid>  (2) 
1XT3

>  <template_shape_score>  (2) 
0.205

>  <template_color_score>  (2) 
0.055

>  <template_combo_score>  (2) 
0.130

$$$$
1XT3_combo_pose
     RDKit          3D

105110  0  0  0  0  0  0  0  0999 V2000
  -27.3403   -7.3571   -7.3544 O   0  0  0  0  0  0  0  0  0  0  0  0
  -26.9515   -6.1572   -7.1544 C   0  0  0  0  0  0  0  0  0  0  0  0
  -27.7218   -5.1028   -7.5890 O   0  0  0  0  0  0  0  0  0  0  0  0
  -25.6736   -5.9654   -6.4543 C   0  0  0  0  0  0  0  0  0  0  0  0
  -24.9870   -7.0400   -6.0560 C   0  0  0  0  0  0  0  0  0  0  0  0
  -23.6931   -6.7082   -5.3521 C   0  0  2  0  0  0  0  0  0  0  0  0
  -24.0042   -5.9920   -4.2132 O   0  0  0  0  0  0  0  0  0  0  0  0
  -23.0057   -5.7241   -6.3170 C   0  0  1  0  0  0  0  0  0  0  0  0
  -23.2289   -6.2435   -7.5868 O   0  0  0  0  0  0  0  0  0  0  0  0
  -21.8526   -6.6776   -8.4006 S   0  0  0  0  0  0  0  0  0  0  0  0
  -20.7195   -7.0698   -7.5115 O   0  0  0  0  0  0  0  0  0  0  0  0
  -22.2113   -7.8089   -9.3520 O   0  0  0  0  0  0  0  0  0  0  0  0
  -21.4066   -5.3863   -9.4004 O   0  0  0  0  0  0  0  0  0  0  0  0
  -23.7648   -4.4179   -6.2190 C   0  0  2  0  0  0  0  0  0  0  0  0
  -23.3334   -3.6650   -5.1276 O   0  0  0  0  0  0  0  0  0  0  0  0
  -22.8216   -2.4336   -5.5301 C   0  0  1  0  0  0  0  0  0  0  0  0
  -23.6816   -1.3096   -5.0362 C   0  0  2  0  0  0  0  0  0  0  0  0
  -24.8290   -1.1408   -5.7987 O   0  0  0  0  0  0  0  0  0  0  0  0
  -22.8752   -0.0430   -4.8707 C   0  0  1  0  0  0  0  0  0  0  0  0
  -23.6503    1.0934   -4.4659 N   0  0  0  0  0  0  0  0  0  0  0  0
  -23.5809    2.2435   -5.7591 S   0  0  0  0  0  0  0  0  0  0  0  0
  -24.3366    3.4864   -5.3875 O   0  0  0  0  0  0  0  0  0  0  0  0
  -24.2128    1.6571   -6.9744 O   0  0  0  0  0  0  0  0  0  0  0  0
  -21.9810    2.7167   -6.0147 O   0  0  0  0  0  0  0  0  0  0  0  0
  -21.7412   -0.3909   -3.9435 C   0  0  1  0  0  0  0  0  0  0  0  0
  -22.1578   -1.2399   -2.9867 O   0  0  0  0  0  0  0  0  0  0  0  0
  -21.6989   -1.0843   -1.6938 C   0  0  1  0  0  0  0  0  0  0  0  0
  -22.6746   -0.7187   -0.6566 C   0  0  2  0  0  0  0  0  0  0  0  0
  -22.9744    0.6586   -0.8641 O   0  0  0  0  0  0  0  0  0  0  0  0
  -22.1251   -0.7983    0.7513 C   0  0  1  0  0  0  0  0  0  0  0  0
  -23.2609   -1.1118    1.5473 O   0  0  0  0  0  0  0  0  0  0  0  0
  -23.7450    0.2258    2.4501 S   0  0  0  0  0  0  0  0  0  0  0  0
  -24.4232   -0.1903    3.7122 O   0  0  0  0  0  0  0  0  0  0  0  0
  -22.6122    1.1094    2.8132 O   0  0  0  0  0  0  0  0  0  0  0  0
  -24.8990    1.0334    1.5076 O   0  0  0  0  0  0  0  0  0  0  0  0
  -21.1389   -1.8562    0.9684 C   0  0  2  0  0  0  0  0  0  0  0  0
  -20.3462   -1.8157    2.0892 O   0  0  0  0  0  0  0  0  0  0  0  0
  -20.3280   -3.0204    2.7895 C   0  0  1  0  0  0  0  0  0  0  0  0
  -19.0060   -3.6600    2.3098 C   0  0  2  0  0  0  0  0  0  0  0  0
  -19.0736   -3.8947    0.9534 O   0  0  0  0  0  0  0  0  0  0  0  0
  -18.7049   -4.8976    3.0968 C   0  0  1  0  0  0  0  0  0  0  0  0
  -17.5796   -4.5856    3.9812 N   0  0  0  0  0  0  0  0  0  0  0  0
  -16.1904   -5.5126    3.6855 S   0  0  0  0  0  0  0  0  0  0  0  0
  -16.4119   -6.9828    3.8930 O   0  0  0  0  0  0  0  0  0  0  0  0
  -15.1477   -5.1093    4.6847 O   0  0  0  0  0  0  0  0  0  0  0  0
  -15.5589   -5.2998    2.1596 O   0  0  0  0  0  0  0  0  0  0  0  0
  -19.9050   -5.2102    3.9457 C   0  0  1  0  0  0  0  0  0  0  0  0
  -19.6532   -6.4380    4.5145 O   0  0  0  0  0  0  0  0  0  0  0  0
  -20.7648   -7.2613    4.6224 C   0  0  1  0  0  0  0  0  0  0  0  0
  -20.9003   -8.1414    3.3571 C   0  0  2  0  0  0  0  0  0  0  0  0
  -22.0917   -7.8978    2.6864 O   0  0  0  0  0  0  0  0  0  0  0  0
  -20.8105   -9.5750    3.8232 C   0  0  1  0  0  0  0  0  0  0  0  0
  -20.6910  -10.3926    2.7248 O   0  0  0  0  0  0  0  0  0  0  0  0
  -21.9755  -11.5056    2.6747 S   0  0  0  0  0  0  0  0  0  0  0  0
  -23.2215  -10.6889    2.8618 O   0  0  0  0  0  0  0  0  0  0  0  0
  -21.9937  -12.0612    1.2799 O   0  0  0  0  0  0  0  0  0  0  0  0
  -21.7825  -12.6824    3.8300 O   0  0  0  0  0  0  0  0  0  0  0  0
  -19.5193   -9.6096    4.6310 C   0  0  2  0  0  0  0  0  0  0  0  0
  -18.8272  -10.7749    4.5245 O   0  0  0  0  0  0  0  0  0  0  0  0
  -17.5666  -10.6213    3.9556 C   0  0  1  0  0  0  0  0  0  0  0  0
  -16.5583  -11.2468    4.8643 C   0  0  2  0  0  0  0  0  0  0  0  0
  -15.4127  -10.4153    4.9908 O   0  0  0  0  0  0  0  0  0  0  0  0
  -16.2090  -12.6568    4.6138 C   0  0  1  0  0  0  0  0  0  0  0  0
  -16.4244  -13.4982    5.8019 N   0  0  0  0  0  0  0  0  0  0  0  0
  -14.8496  -14.1177    6.2651 S   0  0  0  0  0  0  0  0  0  0  0  0
  -13.9131  -12.9591    6.4342 O   0  0  0  0  0  0  0  0  0  0  0  0
  -14.9367  -14.8698    7.5391 O   0  0  0  0  0  0  0  0  0  0  0  0
  -14.2383  -15.0631    4.9965 O   0  0  0  0  0  0  0  0  0  0  0  0
  -16.7932  -13.3004    3.4059 C   0  0  1  0  0  0  0  0  0  0  0  0
  -17.4067  -14.4996    3.7567 O   0  0  0  0  0  0  0  0  0  0  0  0
  -17.7392  -12.5777    2.7101 O   0  0  0  0  0  0  0  0  0  0  0  0
  -17.4416  -11.2457    2.5990 C   0  0  2  0  0  0  0  0  0  0  0  0
  -16.0850  -10.9603    1.9970 C   0  0  0  0  0  0  0  0  0  0  0  0
  -16.1227  -11.4993    0.6913 O   0  0  0  0  0  0  0  0  0  0  0  0
  -14.6833  -11.2443   -0.1182 S   0  0  0  0  0  0  0  0  0  0  0  0
  -13.5200  -11.3069    0.8234 O   0  0  0  0  0  0  0  0  0  0  0  0
  -14.5182  -12.3359   -1.1492 O   0  0  0  0  0  0  0  0  0  0  0  0
  -14.6745   -9.7257   -0.8569 O   0  0  0  0  0  0  0  0  0  0  0  0
  -19.8321   -9.1325    5.8820 O   0  0  0  0  0  0  0  0  0  0  0  0
  -20.7775   -8.0908    5.8237 C   0  0  1  0  0  0  0  0  0  0  0  0
  -20.4820   -7.2063    7.0156 C   0  0  0  0  0  0  0  0  0  0  0  0
  -21.3176   -6.3960    7.4685 O   0  0  0  0  0  0  0  0  0  0  0  0
  -19.2507   -7.2680    7.6523 O   0  0  0  0  0  0  0  0  0  0  0  0
  -19.8775   -4.1319    4.8849 O   0  0  0  0  0  0  0  0  0  0  0  0
  -20.4334   -3.0077    4.2411 C   0  0  2  0  0  0  0  0  0  0  0  0
  -21.7750   -2.7517    4.8496 C   0  0  0  0  0  0  0  0  0  0  0  0
  -22.6814   -3.7846    4.7626 O   0  0  0  0  0  0  0  0  0  0  0  0
  -23.9546   -3.6095    5.8481 S   0  0  0  0  0  0  0  0  0  0  0  0
  -24.2708   -2.1749    6.0470 O   0  0  0  0  0  0  0  0  0  0  0  0
  -25.1400   -4.3327    5.2804 O   0  0  0  0  0  0  0  0  0  0  0  0
  -23.5692   -4.3102    7.3322 O   0  0  0  0  0  0  0  0  0  0  0  0
  -20.2231   -1.9308   -0.1195 O   0  0  0  0  0  0  0  0  0  0  0  0
  -20.8826   -2.2822   -1.2627 C   0  0  1  0  0  0  0  0  0  0  0  0
  -21.7205   -3.4971   -1.0906 C   0  0  0  0  0  0  0  0  0  0  0  0
  -22.9605   -3.3485   -0.9524 O   0  0  0  0  0  0  0  0  0  0  0  0
  -21.2193   -4.7864   -1.0728 O   0  0  0  0  0  0  0  0  0  0  0  0
  -20.8775   -1.1510   -4.7735 O   0  0  0  0  0  0  0  0  0  0  0  0
  -21.3812   -2.3237   -5.2195 C   0  0  2  0  0  0  0  0  0  0  0  0
  -20.5375   -2.7283   -6.4406 C   0  0  0  0  0  0  0  0  0  0  0  0
  -19.2052   -2.8692   -6.0926 O   0  0  0  0  0  0  0  0  0  0  0  0
  -18.3743   -3.1954   -7.5425 S   0  0  0  0  0  0  0  0  0  0  0  0
  -18.9854   -2.2713   -8.5808 O   0  0  0  0  0  0  0  0  0  0  0  0
  -16.9080   -2.9686   -7.4109 O   0  0  0  0  0  0  0  0  0  0  0  0
  -18.7081   -4.7691   -8.0252 O   0  0  0  0  0  0  0  0  0  0  0  0
  -25.1405   -4.7254   -6.1820 O   0  0  0  0  0  0  0  0  0  0  0  0
  1  2  2  0
  2  3  1  0
  2  4  1  0
  4  5  2  0
  5  6  1  0
  6  7  1  1
  6  8  1  0
  8  9  1  6
  9 10  1  0
 10 11  2  0
 10 12  2  0
 10 13  1  0
  8 14  1  0
 14 15  1  1
 16 15  1  1
 16 17  1  0
 17 18  1  6
 17 19  1  0
 19 20  1  1
 20 21  1  0
 21 22  2  0
 21 23  2  0
 21 24  1  0
 19 25  1  0
 25 26  1  1
 27 26  1  6
 27 28  1  0
 28 29  1  6
 28 30  1  0
 30 31  1  1
 31 32  1  0
 32 33  2  0
 32 34  2  0
 32 35  1  0
 30 36  1  0
 36 37  1  1
 38 37  1  1
 38 39  1  0
 39 40  1  6
 39 41  1  0
 41 42  1  1
 42 43  1  0
 43 44  2  0
 43 45  2  0
 43 46  1  0
 41 47  1  0
 47 48  1  1
 49 48  1  6
 49 50  1  0
 50 51  1  1
 50 52  1  0
 52 53  1  6
 53 54  1  0
 54 55  2  0
 54 56  2  0
 54 57  1  0
 52 58  1  0
 58 59  1  1
 60 59  1  1
 60 61  1  0
 61 62  1  6
 61 63  1  0
 63 64  1  1
 64 65  1  0
 65 66  2  0
 65 67  2  0
 65 68  1  0
 63 69  1  0
 69 70  1  1
 69 71  1  0
 71 72  1  0
 72 73  1  1
 73 74  1  0
 74 75  1  0
 75 76  2  0
 75 77  2  0
 75 78  1  0
 58 79  1  0
 79 80  1  0
 80 81  1  1
 81 82  2  0
 81 83  1  0
 47 84  1  0
 84 85  1  0
 85 86  1  6
 86 87  1  0
 87 88  1  0
 88 89  2  0
 88 90  2  0
 88 91  1  0
 36 92  1  0
 92 93  1  0
 93 94  1  1
 94 95  2  0
 94 96  1  0
 25 97  1  0
 97 98  1  0
 98 99  1  6
 99100  1  0
100101  1  0
101102  2  0
101103  2  0
101104  1  0
 14105  1  0
105  4  1  0
 98 16  1  0
 93 27  1  0
 85 38  1  0
 80 49  1  0
 72 60  1  0
M  CHG  8   3  -1  13  -1  24  -1  35  -1  46  -1  57  -1  68  -1  78  -1
M  CHG  4  83  -1  91  -1  96  -1 104  -1
M  END
>  <shape_align_shape_tanimoto>  (3) 
0.23512901212620682

>  <shape_align_color_tanimoto>  (3) 
0.046387235914580452

>  <metric>  (3) 
combo

>  <metric_score>  (3) 
0.141

>  <template_pid>  (3) 
1XT3

>  <template_shape_score>  (3) 
0.235

>  <template_color_score>  (3) 
0.046

>  <template_combo_score>  (3) 
0.141

$$$$
