5F3T_shape_pose
     RDKit          3D

 18 19  0  0  0  0  0  0  0  0999 V2000
  -25.1264   -9.6476   31.9619 C   0  0  0  0  0  0  0  0  0  0  0  0
  -25.5236   -8.3878   31.3939 O   0  0  0  0  0  0  0  0  0  0  0  0
  -25.2479   -8.1517   30.0571 C   0  0  0  0  0  0  0  0  0  0  0  0
  -24.6160   -9.1230   29.3188 C   0  0  0  0  0  0  0  0  0  0  0  0
  -24.3339   -8.9133   27.9890 C   0  0  0  0  0  0  0  0  0  0  0  0
  -24.6784   -7.7105   27.3451 C   0  0  0  0  0  0  0  0  0  0  0  0
  -24.3013   -7.5704   25.9374 C   0  0  0  0  0  0  0  0  0  0  0  0
  -23.6315   -6.2887   25.6254 C   0  0  0  0  0  0  0  0  0  0  0  0
  -24.4346   -5.2702   25.5755 O   0  0  0  0  0  0  0  0  0  0  0  0
  -22.2714   -6.1358   25.3996 O   0  0  0  0  0  0  0  0  0  0  0  0
  -25.3125   -6.7329   28.0836 C   0  0  0  0  0  0  0  0  0  0  0  0
  -25.5879   -6.9738   29.4362 C   0  0  0  0  0  0  0  0  0  0  0  0
  -26.2739   -5.9062   30.1416 C   0  0  0  0  0  0  0  0  0  0  0  0
  -27.4551   -6.1801   30.7774 C   0  0  0  0  0  0  0  0  0  0  0  0
  -28.1092   -5.1814   31.4615 C   0  0  0  0  0  0  0  0  0  0  0  0
  -27.6491   -3.8821   31.5578 C   0  0  0  0  0  0  0  0  0  0  0  0
  -26.4419   -3.6048   30.9083 C   0  0  0  0  0  0  0  0  0  0  0  0
  -25.7709   -4.6241   30.2072 C   0  0  0  0  0  0  0  0  0  0  0  0
  1  2  1  0
  2  3  1  0
  3  4  2  0
  4  5  1  0
  5  6  2  0
  6  7  1  0
  7  8  1  0
  8  9  2  0
  8 10  1  0
  6 11  1  0
 11 12  2  0
 12 13  1  0
 13 14  2  0
 14 15  1  0
 15 16  2  0
 16 17  1  0
 17 18  2  0
 12  3  1  0
 18 13  1  0
M  CHG  1  10  -1
M  END
>  <shape_align_shape_tanimoto>  (1) 
0.46632575477985566

>  <shape_align_color_tanimoto>  (1) 
0.062538018167061102

>  <metric>  (1) 
shape

>  <metric_score>  (1) 
0.466

>  <template_pid>  (1) 
5F3T

>  <template_shape_score>  (1) 
0.466

>  <template_color_score>  (1) 
0.063

>  <template_combo_score>  (1) 
0.264

$$$$
5F3T_color_pose
     RDKit          3D

 18 19  0  0  0  0  0  0  0  0999 V2000
  -28.2920   -5.7227   30.5632 C   0  0  0  0  0  0  0  0  0  0  0  0
  -27.2450   -6.6664   30.4565 O   0  0  0  0  0  0  0  0  0  0  0  0
  -26.5257   -6.8739   29.2882 C   0  0  0  0  0  0  0  0  0  0  0  0
  -26.8723   -6.1044   28.1884 C   0  0  0  0  0  0  0  0  0  0  0  0
  -26.1952   -6.2610   26.9925 C   0  0  0  0  0  0  0  0  0  0  0  0
  -25.1693   -7.1938   26.9083 C   0  0  0  0  0  0  0  0  0  0  0  0
  -24.4834   -7.3129   25.5986 C   0  0  0  0  0  0  0  0  0  0  0  0
  -23.3180   -6.3690   25.5425 C   0  0  0  0  0  0  0  0  0  0  0  0
  -23.0182   -5.6126   26.5002 O   0  0  0  0  0  0  0  0  0  0  0  0
  -22.5810   -6.3816   24.3537 O   0  0  0  0  0  0  0  0  0  0  0  0
  -24.8191   -7.9647   28.0031 C   0  0  0  0  0  0  0  0  0  0  0  0
  -25.4993   -7.8028   29.1930 C   0  0  0  0  0  0  0  0  0  0  0  0
  -25.1833   -8.5845   30.3948 C   0  0  0  0  0  0  0  0  0  0  0  0
  -24.9781   -9.9634   30.3011 C   0  0  0  0  0  0  0  0  0  0  0  0
  -24.6812  -10.6914   31.4369 C   0  0  0  0  0  0  0  0  0  0  0  0
  -24.5775  -10.0982   32.6834 C   0  0  0  0  0  0  0  0  0  0  0  0
  -24.7807   -8.7236   32.7847 C   0  0  0  0  0  0  0  0  0  0  0  0
  -25.0806   -7.9910   31.6350 C   0  0  0  0  0  0  0  0  0  0  0  0
  1  2  1  0
  2  3  1  0
  3  4  2  0
  4  5  1  0
  5  6  2  0
  6  7  1  0
  7  8  1  0
  8  9  2  0
  8 10  1  0
  6 11  1  0
 11 12  2  0
 12 13  1  0
 13 14  2  0
 14 15  1  0
 15 16  2  0
 16 17  1  0
 17 18  2  0
 12  3  1  0
 18 13  1  0
M  CHG  1  10  -1
M  END
>  <shape_align_shape_tanimoto>  (2) 
0.4565369167332089

>  <shape_align_color_tanimoto>  (2) 
0.13869859362253156

>  <metric>  (2) 
color

>  <metric_score>  (2) 
0.139

>  <template_pid>  (2) 
5F3T

>  <template_shape_score>  (2) 
0.457

>  <template_color_score>  (2) 
0.139

>  <template_combo_score>  (2) 
0.298

$$$$
5F3T_combo_pose
     RDKit          3D

 18 19  0  0  0  0  0  0  0  0999 V2000
  -28.2920   -5.7227   30.5632 C   0  0  0  0  0  0  0  0  0  0  0  0
  -27.2450   -6.6664   30.4565 O   0  0  0  0  0  0  0  0  0  0  0  0
  -26.5257   -6.8739   29.2882 C   0  0  0  0  0  0  0  0  0  0  0  0
  -26.8723   -6.1044   28.1884 C   0  0  0  0  0  0  0  0  0  0  0  0
  -26.1952   -6.2610   26.9925 C   0  0  0  0  0  0  0  0  0  0  0  0
  -25.1693   -7.1938   26.9083 C   0  0  0  0  0  0  0  0  0  0  0  0
  -24.4834   -7.3129   25.5986 C   0  0  0  0  0  0  0  0  0  0  0  0
  -23.3180   -6.3690   25.5425 C   0  0  0  0  0  0  0  0  0  0  0  0
  -23.0182   -5.6126   26.5002 O   0  0  0  0  0  0  0  0  0  0  0  0
  -22.5810   -6.3816   24.3537 O   0  0  0  0  0  0  0  0  0  0  0  0
  -24.8191   -7.9647   28.0031 C   0  0  0  0  0  0  0  0  0  0  0  0
  -25.4993   -7.8028   29.1930 C   0  0  0  0  0  0  0  0  0  0  0  0
  -25.1833   -8.5845   30.3948 C   0  0  0  0  0  0  0  0  0  0  0  0
  -24.9781   -9.9634   30.3011 C   0  0  0  0  0  0  0  0  0  0  0  0
  -24.6812  -10.6914   31.4369 C   0  0  0  0  0  0  0  0  0  0  0  0
  -24.5775  -10.0982   32.6834 C   0  0  0  0  0  0  0  0  0  0  0  0
  -24.7807   -8.7236   32.7847 C   0  0  0  0  0  0  0  0  0  0  0  0
  -25.0806   -7.9910   31.6350 C   0  0  0  0  0  0  0  0  0  0  0  0
  1  2  1  0
  2  3  1  0
  3  4  2  0
  4  5  1  0
  5  6  2  0
  6  7  1  0
  7  8  1  0
  8  9  2  0
  8 10  1  0
  6 11  1  0
 11 12  2  0
 12 13  1  0
 13 14  2  0
 14 15  1  0
 15 16  2  0
 16 17  1  0
 17 18  2  0
 12  3  1  0
 18 13  1  0
M  CHG  1  10  -1
M  END
>  <shape_align_shape_tanimoto>  (3) 
0.4565369167332089

>  <shape_align_color_tanimoto>  (3) 
0.13869859362253156

>  <metric>  (3) 
combo

>  <metric_score>  (3) 
0.298

>  <template_pid>  (3) 
5F3T

>  <template_shape_score>  (3) 
0.457

>  <template_color_score>  (3) 
0.139

>  <template_combo_score>  (3) 
0.298

$$$$
