4WK1_shape_pose
     RDKit          3D

 44 50  0  0  0  0  0  0  0  0999 V2000
   31.6803   26.9415   14.7696 N   0  0  0  0  0  0  0  0  0  0  0  0
   33.0690   26.7379   14.5367 C   0  0  0  0  0  0  0  0  0  0  0  0
   33.6125   25.5287   14.7975 N   0  0  0  0  0  0  0  0  0  0  0  0
   34.9334   25.2905   14.5901 C   0  0  0  0  0  0  0  0  0  0  0  0
   35.7636   26.2430   14.1163 N   0  0  0  0  0  0  0  0  0  0  0  0
   35.2423   27.4519   13.8509 C   0  0  0  0  0  0  0  0  0  0  0  0
   33.8898   27.7392   14.0498 C   0  0  0  0  0  0  0  0  0  0  0  0
   33.6592   29.0049   13.7048 N   0  0  0  0  0  0  0  0  0  0  0  0
   34.8187   29.5490   13.2881 C   0  0  0  0  0  0  0  0  0  0  0  0
   35.7680   28.6003   13.3812 N   0  0  0  0  0  0  0  0  0  0  0  0
   37.1628   28.7417   13.0396 C   0  0  2  0  0  0  0  0  0  0  0  0
   37.9740   27.9895   13.8726 O   0  0  0  0  0  0  0  0  0  0  0  0
   39.2486   28.4184   13.6019 C   0  0  2  0  0  0  0  0  0  0  0  0
   40.1445   28.3409   14.8447 C   0  0  0  0  0  0  0  0  0  0  0  0
   41.4093   27.9591   14.4078 O   0  0  0  0  0  0  0  0  0  0  0  0
   42.5980   28.5472   15.4119 P   0  0  1  0  0  5  0  0  0  0  0  0
   42.1602   29.8264   16.1091 O   0  0  0  0  0  0  0  0  0  0  0  0
   42.7967   27.3919   16.6617 O   0  0  0  0  0  0  0  0  0  0  0  0
   44.0907   28.7849   14.7389 O   0  0  0  0  0  0  0  0  0  0  0  0
   44.1322   29.4483   13.5226 C   0  0  1  0  0  0  0  0  0  0  0  0
   44.7593   28.5886   12.4395 C   0  0  1  0  0  0  0  0  0  0  0  0
   45.6224   27.6384   12.9524 O   0  0  0  0  0  0  0  0  0  0  0  0
   43.5490   28.0113   11.7522 C   0  0  2  0  0  0  0  0  0  0  0  0
   43.6593   28.0201   10.3069 N   0  0  0  0  0  0  0  0  0  0  0  0
   44.7906   28.1270    9.5635 C   0  0  0  0  0  0  0  0  0  0  0  0
   44.4480   28.0924    8.2495 N   0  0  0  0  0  0  0  0  0  0  0  0
   43.1083   27.9643    8.1712 C   0  0  0  0  0  0  0  0  0  0  0  0
   42.1919   27.8755    7.1553 C   0  0  0  0  0  0  0  0  0  0  0  0
   42.6131   27.9142    5.8058 N   0  0  0  0  0  0  0  0  0  0  0  0
   40.8657   27.7493    7.4031 N   0  0  0  0  0  0  0  0  0  0  0  0
   40.4290   27.7094    8.6749 C   0  0  0  0  0  0  0  0  0  0  0  0
   41.2808   27.7921    9.7156 N   0  0  0  0  0  0  0  0  0  0  0  0
   42.6042   27.9181    9.4757 C   0  0  0  0  0  0  0  0  0  0  0  0
   42.4237   28.7031   12.1487 O   0  0  0  0  0  0  0  0  0  0  0  0
   42.8078   29.7540   12.9538 C   0  0  2  0  0  0  0  0  0  0  0  0
   42.7956   30.9968   12.0605 C   0  0  0  0  0  0  0  0  0  0  0  0
   41.9642   30.7363   10.9552 O   0  0  0  0  0  0  0  0  0  0  0  0
   40.3752   31.2370   11.2916 P   0  0  1  0  0  5  0  0  0  0  0  0
   40.3321   32.3416   12.3036 O   0  0  0  0  0  0  0  0  0  0  0  0
   39.6915   31.7931    9.8503 O   0  0  0  0  0  0  0  0  0  0  0  0
   39.4806   29.8835   11.7840 O   0  0  0  0  0  0  0  0  0  0  0  0
   39.1859   29.8624   13.1278 C   0  0  1  0  0  0  0  0  0  0  0  0
   37.6857   30.1376   13.3403 C   0  0  1  0  0  0  0  0  0  0  0  0
   37.3158   31.0752   12.4018 O   0  0  0  0  0  0  0  0  0  0  0  0
  1  2  1  0
  2  3  2  0
  3  4  1  0
  4  5  2  0
  5  6  1  0
  6  7  2  0
  7  8  1  0
  8  9  2  0
  9 10  1  0
 11 10  1  1
 11 12  1  0
 12 13  1  0
 13 14  1  1
 14 15  1  0
 15 16  1  0
 16 17  2  0
 16 18  1  1
 16 19  1  0
 20 19  1  1
 20 21  1  0
 21 22  1  1
 21 23  1  0
 23 24  1  6
 24 25  1  0
 25 26  2  0
 26 27  1  0
 27 28  2  0
 28 29  1  0
 28 30  1  0
 30 31  2  0
 31 32  1  0
 32 33  2  0
 23 34  1  0
 34 35  1  0
 35 36  1  6
 36 37  1  0
 37 38  1  0
 38 39  2  0
 38 40  1  6
 38 41  1  0
 42 41  1  6
 42 43  1  0
 43 44  1  6
  7  2  1  0
 43 11  1  0
 10  6  1  0
 42 13  1  0
 35 20  1  0
 33 24  1  0
 33 27  1  0
M  END
>  <shape_align_shape_tanimoto>  (1) 
0.33513873933270955

>  <shape_align_color_tanimoto>  (1) 
0.037959503758207745

>  <metric>  (1) 
shape

>  <metric_score>  (1) 
0.335

>  <template_pid>  (1) 
4WK1

>  <template_shape_score>  (1) 
0.335

>  <template_color_score>  (1) 
0.038

>  <template_combo_score>  (1) 
0.187

$$$$
4WK1_color_pose
     RDKit          3D

 44 50  0  0  0  0  0  0  0  0999 V2000
   44.6028   24.9405    8.1328 N   0  0  0  0  0  0  0  0  0  0  0  0
   44.6800   26.2833    8.6375 C   0  0  0  0  0  0  0  0  0  0  0  0
   45.2426   27.2622    7.9075 N   0  0  0  0  0  0  0  0  0  0  0  0
   45.3349   28.5366    8.3453 C   0  0  0  0  0  0  0  0  0  0  0  0
   44.8419   28.8483    9.5703 N   0  0  0  0  0  0  0  0  0  0  0  0
   44.2655   27.9142   10.3526 C   0  0  0  0  0  0  0  0  0  0  0  0
   44.1688   26.5938    9.9013 C   0  0  0  0  0  0  0  0  0  0  0  0
   43.5670   25.8519   10.8350 N   0  0  0  0  0  0  0  0  0  0  0  0
   43.2710   26.6624   11.8825 C   0  0  0  0  0  0  0  0  0  0  0  0
   43.6987   27.8899   11.5694 N   0  0  0  0  0  0  0  0  0  0  0  0
   43.5717   29.0720   12.4362 C   0  0  2  0  0  0  0  0  0  0  0  0
   42.8844   28.7795   13.5853 O   0  0  0  0  0  0  0  0  0  0  0  0
   41.7907   29.6442   13.6920 C   0  0  2  0  0  0  0  0  0  0  0  0
   40.7610   29.0553   14.6260 C   0  0  0  0  0  0  0  0  0  0  0  0
   39.8398   28.2406   14.0185 O   0  0  0  0  0  0  0  0  0  0  0  0
   38.7234   27.6011   15.1433 P   0  0  1  0  0  5  0  0  0  0  0  0
   38.4572   26.1430   14.8353 O   0  0  0  0  0  0  0  0  0  0  0  0
   39.3296   27.8190   16.6872 O   0  0  0  0  0  0  0  0  0  0  0  0
   37.2577   28.4360   15.0041 O   0  0  0  0  0  0  0  0  0  0  0  0
   36.7536   28.1640   13.7717 C   0  0  1  0  0  0  0  0  0  0  0  0
   35.3749   27.5250   13.7619 C   0  0  1  0  0  0  0  0  0  0  0  0
   34.4332   28.2671   14.4251 O   0  0  0  0  0  0  0  0  0  0  0  0
   35.0963   27.6700   12.2585 C   0  0  2  0  0  0  0  0  0  0  0  0
   35.7254   26.4820   11.6697 N   0  0  0  0  0  0  0  0  0  0  0  0
   36.7000   26.5121   10.7152 C   0  0  0  0  0  0  0  0  0  0  0  0
   37.0413   25.2426   10.4100 N   0  0  0  0  0  0  0  0  0  0  0  0
   36.2936   24.4127   11.1606 C   0  0  0  0  0  0  0  0  0  0  0  0
   36.2722   23.0327   11.2129 C   0  0  0  0  0  0  0  0  0  0  0  0
   37.1297   22.2502   10.3914 N   0  0  0  0  0  0  0  0  0  0  0  0
   35.3938   22.4853   12.0850 N   0  0  0  0  0  0  0  0  0  0  0  0
   34.5847   23.2507   12.8594 C   0  0  0  0  0  0  0  0  0  0  0  0
   34.6037   24.5978   12.8103 N   0  0  0  0  0  0  0  0  0  0  0  0
   35.4602   25.1951   11.9585 C   0  0  0  0  0  0  0  0  0  0  0  0
   35.7710   28.7993   11.8533 O   0  0  0  0  0  0  0  0  0  0  0  0
   36.4506   29.3538   12.9097 C   0  0  2  0  0  0  0  0  0  0  0  0
   37.6968   30.0760   12.4579 C   0  0  0  0  0  0  0  0  0  0  0  0
   38.2246   30.8879   13.4520 O   0  0  0  0  0  0  0  0  0  0  0  0
   39.6185   31.6069   12.7605 P   0  0  1  0  0  5  0  0  0  0  0  0
   39.0671   32.6838   11.8238 O   0  0  0  0  0  0  0  0  0  0  0  0
   40.4395   32.3861   13.9645 O   0  0  0  0  0  0  0  0  0  0  0  0
   40.3617   30.4757   11.8812 O   0  0  0  0  0  0  0  0  0  0  0  0
   41.3734   29.7353   12.2739 C   0  0  1  0  0  0  0  0  0  0  0  0
   42.7295   30.0545   11.6386 C   0  0  1  0  0  0  0  0  0  0  0  0
   43.1295   31.3568   11.9213 O   0  0  0  0  0  0  0  0  0  0  0  0
  1  2  1  0
  2  3  2  0
  3  4  1  0
  4  5  2  0
  5  6  1  0
  6  7  2  0
  7  8  1  0
  8  9  2  0
  9 10  1  0
 11 10  1  6
 11 12  1  0
 12 13  1  0
 13 14  1  1
 14 15  1  0
 15 16  1  0
 16 17  2  0
 16 18  1  1
 16 19  1  0
 20 19  1  1
 20 21  1  0
 21 22  1  1
 21 23  1  0
 23 24  1  6
 24 25  1  0
 25 26  2  0
 26 27  1  0
 27 28  2  0
 28 29  1  0
 28 30  1  0
 30 31  2  0
 31 32  1  0
 32 33  2  0
 23 34  1  0
 34 35  1  0
 35 36  1  6
 36 37  1  0
 37 38  1  0
 38 39  2  0
 38 40  1  1
 38 41  1  0
 42 41  1  1
 42 43  1  0
 43 44  1  1
  7  2  1  0
 43 11  1  0
 10  6  1  0
 42 13  1  0
 35 20  1  0
 33 24  1  0
 33 27  1  0
M  END
>  <shape_align_shape_tanimoto>  (2) 
0.31154718947028565

>  <shape_align_color_tanimoto>  (2) 
0.093280555584473096

>  <metric>  (2) 
color

>  <metric_score>  (2) 
0.093

>  <template_pid>  (2) 
4WK1

>  <template_shape_score>  (2) 
0.312

>  <template_color_score>  (2) 
0.093

>  <template_combo_score>  (2) 
0.202

$$$$
4WK1_combo_pose
     RDKit          3D

 44 50  0  0  0  0  0  0  0  0999 V2000
   37.2082   23.2753    9.1052 N   0  0  0  0  0  0  0  0  0  0  0  0
   36.5172   23.8165   10.2235 C   0  0  0  0  0  0  0  0  0  0  0  0
   35.8762   23.0301   11.1295 N   0  0  0  0  0  0  0  0  0  0  0  0
   35.2305   23.5693   12.1780 C   0  0  0  0  0  0  0  0  0  0  0  0
   35.1672   24.8931   12.4104 N   0  0  0  0  0  0  0  0  0  0  0  0
   35.7786   25.7104   11.5532 C   0  0  0  0  0  0  0  0  0  0  0  0
   36.4537   25.1744   10.4597 C   0  0  0  0  0  0  0  0  0  0  0  0
   36.9865   26.1834    9.7429 N   0  0  0  0  0  0  0  0  0  0  0  0
   36.6684   27.3460   10.3508 C   0  0  0  0  0  0  0  0  0  0  0  0
   35.9401   27.0386   11.4402 N   0  0  0  0  0  0  0  0  0  0  0  0
   35.3942   28.0300   12.3813 C   0  0  2  0  0  0  0  0  0  0  0  0
   35.9507   29.2834   12.1266 O   0  0  0  0  0  0  0  0  0  0  0  0
   36.5904   29.6756   13.3014 C   0  0  2  0  0  0  0  0  0  0  0  0
   37.3565   30.9039   13.2681 C   0  0  0  0  0  0  0  0  0  0  0  0
   38.1292   31.2513   12.1461 O   0  0  0  0  0  0  0  0  0  0  0  0
   39.5771   30.5504   12.3404 P   0  0  1  0  0  5  0  0  0  0  0  0
   39.8063   30.5239   13.7761 O   0  0  0  0  0  0  0  0  0  0  0  0
   39.3901   29.1706   11.4025 O   0  0  0  0  0  0  0  0  0  0  0  0
   41.0719   31.0420   11.8869 O   0  0  0  0  0  0  0  0  0  0  0  0
   41.8408   29.8805   12.1840 C   0  0  1  0  0  0  0  0  0  0  0  0
   43.1841   30.0773   11.5601 C   0  0  1  0  0  0  0  0  0  0  0  0
   43.6749   31.3134   12.0092 O   0  0  0  0  0  0  0  0  0  0  0  0
   43.9284   29.0158   12.3068 C   0  0  2  0  0  0  0  0  0  0  0  0
   43.7398   27.6934   11.8179 N   0  0  0  0  0  0  0  0  0  0  0  0
   44.0317   26.5760   12.5107 C   0  0  0  0  0  0  0  0  0  0  0  0
   43.7392   25.4898   11.7721 N   0  0  0  0  0  0  0  0  0  0  0  0
   43.2587   25.9077   10.6033 C   0  0  0  0  0  0  0  0  0  0  0  0
   42.8125   25.2136    9.4960 C   0  0  0  0  0  0  0  0  0  0  0  0
   42.8035   23.7829    9.4453 N   0  0  0  0  0  0  0  0  0  0  0  0
   42.3718   25.9018    8.4299 N   0  0  0  0  0  0  0  0  0  0  0  0
   42.3684   27.2655    8.4489 C   0  0  0  0  0  0  0  0  0  0  0  0
   42.8132   27.9264    9.5520 N   0  0  0  0  0  0  0  0  0  0  0  0
   43.2583   27.2917   10.6300 C   0  0  0  0  0  0  0  0  0  0  0  0
   43.4987   29.2632   13.5836 O   0  0  0  0  0  0  0  0  0  0  0  0
   42.0920   29.4968   13.5471 C   0  0  2  0  0  0  0  0  0  0  0  0
   41.4739   28.3746   14.2536 C   0  0  0  0  0  0  0  0  0  0  0  0
   40.5098   27.5881   13.6903 O   0  0  0  0  0  0  0  0  0  0  0  0
   39.2297   27.1141   14.6638 P   0  0  1  0  0  5  0  0  0  0  0  0
   38.7133   25.7602   14.2608 O   0  0  0  0  0  0  0  0  0  0  0  0
   39.8800   27.0127   16.2464 O   0  0  0  0  0  0  0  0  0  0  0  0
   37.9709   28.2471   14.7866 O   0  0  0  0  0  0  0  0  0  0  0  0
   37.1819   28.3928   13.7218 C   0  0  1  0  0  0  0  0  0  0  0  0
   35.8392   27.6177   13.7946 C   0  0  1  0  0  0  0  0  0  0  0  0
   34.9699   28.2113   14.6873 O   0  0  0  0  0  0  0  0  0  0  0  0
  1  2  1  0
  2  3  2  0
  3  4  1  0
  4  5  2  0
  5  6  1  0
  6  7  2  0
  7  8  1  0
  8  9  2  0
  9 10  1  0
 11 10  1  6
 11 12  1  0
 12 13  1  0
 13 14  1  6
 14 15  1  0
 15 16  1  0
 16 17  2  0
 16 18  1  6
 16 19  1  0
 20 19  1  1
 20 21  1  0
 21 22  1  1
 21 23  1  0
 23 24  1  6
 24 25  1  0
 25 26  2  0
 26 27  1  0
 27 28  2  0
 28 29  1  0
 28 30  1  0
 30 31  2  0
 31 32  1  0
 32 33  2  0
 23 34  1  0
 34 35  1  0
 35 36  1  6
 36 37  1  0
 37 38  1  0
 38 39  2  0
 38 40  1  1
 38 41  1  0
 42 41  1  1
 42 43  1  0
 43 44  1  1
  7  2  1  0
 43 11  1  0
 10  6  1  0
 42 13  1  0
 35 20  1  0
 33 24  1  0
 33 27  1  0
M  END
>  <shape_align_shape_tanimoto>  (3) 
0.32333677401720007

>  <shape_align_color_tanimoto>  (3) 
0.084636246670364498

>  <metric>  (3) 
combo

>  <metric_score>  (3) 
0.204

>  <template_pid>  (3) 
4WK1

>  <template_shape_score>  (3) 
0.323

>  <template_color_score>  (3) 
0.085

>  <template_combo_score>  (3) 
0.204

$$$$
