3S3I_shape_pose
     RDKit          3D

 26 29  0  0  0  0  0  0  0  0999 V2000
   12.0250    0.8290   27.8838 C   0  0  0  0  0  0  0  0  0  0  0  0
   11.4425    0.7581   29.2488 C   0  0  0  0  0  0  0  0  0  0  0  0
   10.3694    1.5910   29.5644 C   0  0  0  0  0  0  0  0  0  0  0  0
    9.8020    1.5407   30.8424 C   0  0  0  0  0  0  0  0  0  0  0  0
   10.3170    0.6615   31.7769 C   0  0  0  0  0  0  0  0  0  0  0  0
    9.6994    0.6373   33.0988 C   0  0  0  0  0  0  0  0  0  0  0  0
    8.7364    1.4226   33.2964 O   0  0  0  0  0  0  0  0  0  0  0  0
   10.1177   -0.2042   34.1459 N   0  0  0  0  0  0  0  0  0  0  0  0
    9.4802   -0.1991   35.4422 C   0  0  0  0  0  0  0  0  0  0  0  0
   10.4895   -0.2692   36.5995 C   0  0  0  0  0  0  0  0  0  0  0  0
    9.6056   -1.4273   36.3283 C   0  0  0  0  0  0  0  0  0  0  0  0
   11.3758   -0.1410   31.4222 C   0  0  0  0  0  0  0  0  0  0  0  0
   11.9635   -0.1220   30.1733 C   0  0  0  0  0  0  0  0  0  0  0  0
   13.0841   -1.0103   29.8950 C   0  0  0  0  0  0  0  0  0  0  0  0
   14.2368   -0.6456   29.2778 C   0  0  0  0  0  0  0  0  0  0  0  0
   15.2422   -1.5483   29.0529 C   0  0  0  0  0  0  0  0  0  0  0  0
   15.1330   -2.8176   29.4287 N   0  0  0  0  0  0  0  0  0  0  0  0
   15.9654   -3.8488   29.3153 C   0  0  0  0  0  0  0  0  0  0  0  0
   17.2946   -4.0237   28.7571 C   0  0  0  0  0  0  0  0  0  0  0  0
   17.9862   -2.8803   28.1563 C   0  0  0  0  0  0  0  0  0  0  0  0
   17.1469   -5.0916   27.6560 C   0  0  0  0  0  0  0  0  0  0  0  0
   18.2287   -4.6872   29.7820 C   0  0  0  0  0  0  0  0  0  0  0  0
   15.2844   -4.8949   29.8934 N   0  0  0  0  0  0  0  0  0  0  0  0
   14.1286   -4.4813   30.3123 N   0  0  0  0  0  0  0  0  0  0  0  0
   13.9875   -3.1846   30.0434 C   0  0  0  0  0  0  0  0  0  0  0  0
   12.9489   -2.3259   30.2946 C   0  0  0  0  0  0  0  0  0  0  0  0
  1  2  1  0
  2  3  2  0
  3  4  1  0
  4  5  2  0
  5  6  1  0
  6  7  2  0
  6  8  1  0
  8  9  1  0
  9 10  1  0
 10 11  1  0
  5 12  1  0
 12 13  2  0
 13 14  1  0
 14 15  1  0
 15 16  2  0
 16 17  1  0
 17 18  1  0
 18 19  1  0
 19 20  1  0
 19 21  1  0
 19 22  1  0
 18 23  2  0
 23 24  1  0
 24 25  2  0
 25 26  1  0
 13  2  1  0
 26 14  2  0
 11  9  1  0
 25 17  1  0
M  END
>  <shape_align_shape_tanimoto>  (1) 
0.69275145375138547

>  <shape_align_color_tanimoto>  (1) 
0.018428319378387195

>  <metric>  (1) 
shape

>  <metric_score>  (1) 
0.693

>  <template_pid>  (1) 
3S3I

>  <template_shape_score>  (1) 
0.693

>  <template_color_score>  (1) 
0.018

>  <template_combo_score>  (1) 
0.356

$$$$
3S3I_color_pose
     RDKit          3D

 26 29  0  0  0  0  0  0  0  0999 V2000
   15.3100   -0.8891   32.3054 C   0  0  0  0  0  0  0  0  0  0  0  0
   15.3958   -1.9609   31.3017 C   0  0  0  0  0  0  0  0  0  0  0  0
   16.4128   -2.8925   31.3352 C   0  0  0  0  0  0  0  0  0  0  0  0
   16.4758   -3.8925   30.3798 C   0  0  0  0  0  0  0  0  0  0  0  0
   15.5380   -3.9928   29.3741 C   0  0  0  0  0  0  0  0  0  0  0  0
   15.5705   -5.0314   28.3499 C   0  0  0  0  0  0  0  0  0  0  0  0
   14.6724   -5.0737   27.4415 O   0  0  0  0  0  0  0  0  0  0  0  0
   16.5626   -6.0300   28.2914 N   0  0  0  0  0  0  0  0  0  0  0  0
   16.5753   -7.0609   27.2562 C   0  0  0  0  0  0  0  0  0  0  0  0
   17.1979   -8.3653   27.4932 C   0  0  0  0  0  0  0  0  0  0  0  0
   17.9615   -7.3024   26.6737 C   0  0  0  0  0  0  0  0  0  0  0  0
   14.5326   -3.0611   29.3518 C   0  0  0  0  0  0  0  0  0  0  0  0
   14.4504   -2.0486   30.3015 C   0  0  0  0  0  0  0  0  0  0  0  0
   13.3334   -1.1205   30.1708 C   0  0  0  0  0  0  0  0  0  0  0  0
   13.0520   -0.6149   28.9178 C   0  0  0  0  0  0  0  0  0  0  0  0
   11.9951    0.2677   28.7663 C   0  0  0  0  0  0  0  0  0  0  0  0
   11.2215    0.6641   29.7745 N   0  0  0  0  0  0  0  0  0  0  0  0
   10.1597    1.5010   29.8492 C   0  0  0  0  0  0  0  0  0  0  0  0
    9.5096    2.2652   28.7545 C   0  0  0  0  0  0  0  0  0  0  0  0
   10.1694    3.6332   28.5874 C   0  0  0  0  0  0  0  0  0  0  0  0
    9.3923    1.5167   27.4697 C   0  0  0  0  0  0  0  0  0  0  0  0
    8.0803    2.5782   29.2184 C   0  0  0  0  0  0  0  0  0  0  0  0
    9.7835    1.5109   31.1618 N   0  0  0  0  0  0  0  0  0  0  0  0
   10.6018    0.7067   31.8188 N   0  0  0  0  0  0  0  0  0  0  0  0
   11.5025    0.1650   31.0000 C   0  0  0  0  0  0  0  0  0  0  0  0
   12.5438   -0.7199   31.2175 C   0  0  0  0  0  0  0  0  0  0  0  0
  1  2  1  0
  2  3  2  0
  3  4  1  0
  4  5  2  0
  5  6  1  0
  6  7  2  0
  6  8  1  0
  8  9  1  0
  9 10  1  0
 10 11  1  0
  5 12  1  0
 12 13  2  0
 13 14  1  0
 14 15  1  0
 15 16  2  0
 16 17  1  0
 17 18  1  0
 18 19  1  0
 19 20  1  0
 19 21  1  0
 19 22  1  0
 18 23  2  0
 23 24  1  0
 24 25  2  0
 25 26  1  0
 13  2  1  0
 26 14  2  0
 11  9  1  0
 25 17  1  0
M  END
>  <shape_align_shape_tanimoto>  (2) 
0.54576735901751339

>  <shape_align_color_tanimoto>  (2) 
0.11946078047139164

>  <metric>  (2) 
color

>  <metric_score>  (2) 
0.119

>  <template_pid>  (2) 
3S3I

>  <template_shape_score>  (2) 
0.546

>  <template_color_score>  (2) 
0.119

>  <template_combo_score>  (2) 
0.333

$$$$
3S3I_combo_pose
     RDKit          3D

 26 29  0  0  0  0  0  0  0  0999 V2000
   12.1287    0.7097   27.8806 C   0  0  0  0  0  0  0  0  0  0  0  0
   11.5663    0.6427   29.2501 C   0  0  0  0  0  0  0  0  0  0  0  0
   10.5109    1.4772   29.5500 C   0  0  0  0  0  0  0  0  0  0  0  0
    9.9818    1.4125   30.8279 C   0  0  0  0  0  0  0  0  0  0  0  0
   10.4720    0.5582   31.7779 C   0  0  0  0  0  0  0  0  0  0  0  0
    9.8561    0.5556   33.0954 C   0  0  0  0  0  0  0  0  0  0  0  0
    8.8980    1.3450   33.2916 O   0  0  0  0  0  0  0  0  0  0  0  0
   10.2824   -0.2878   34.1573 N   0  0  0  0  0  0  0  0  0  0  0  0
    9.6548   -0.2749   35.4636 C   0  0  0  0  0  0  0  0  0  0  0  0
    9.5296   -1.5903   36.1463 C   0  0  0  0  0  0  0  0  0  0  0  0
   10.5116   -0.5488   36.6522 C   0  0  0  0  0  0  0  0  0  0  0  0
   11.5258   -0.2531   31.4273 C   0  0  0  0  0  0  0  0  0  0  0  0
   12.0952   -0.2256   30.1506 C   0  0  0  0  0  0  0  0  0  0  0  0
   13.2098   -1.1258   29.8920 C   0  0  0  0  0  0  0  0  0  0  0  0
   13.0720   -2.4359   30.2985 C   0  0  0  0  0  0  0  0  0  0  0  0
   14.0966   -3.3641   30.0913 C   0  0  0  0  0  0  0  0  0  0  0  0
   15.2304   -2.9687   29.4867 N   0  0  0  0  0  0  0  0  0  0  0  0
   16.3562   -3.6610   29.1719 C   0  0  0  0  0  0  0  0  0  0  0  0
   16.6335   -5.1073   29.4333 C   0  0  0  0  0  0  0  0  0  0  0  0
   18.0120   -5.4227   28.8810 C   0  0  0  0  0  0  0  0  0  0  0  0
   15.6430   -5.9948   28.7226 C   0  0  0  0  0  0  0  0  0  0  0  0
   16.6743   -5.3756   30.9207 C   0  0  0  0  0  0  0  0  0  0  0  0
   17.1853   -2.7642   28.5688 N   0  0  0  0  0  0  0  0  0  0  0  0
   16.6019   -1.6018   28.5200 N   0  0  0  0  0  0  0  0  0  0  0  0
   15.3767   -1.6748   29.0807 C   0  0  0  0  0  0  0  0  0  0  0  0
   14.3786   -0.7374   29.2739 C   0  0  0  0  0  0  0  0  0  0  0  0
  1  2  1  0
  2  3  2  0
  3  4  1  0
  4  5  2  0
  5  6  1  0
  6  7  2  0
  6  8  1  0
  8  9  1  0
  9 10  1  0
 10 11  1  0
  5 12  1  0
 12 13  2  0
 13 14  1  0
 14 15  1  0
 15 16  2  0
 16 17  1  0
 17 18  1  0
 18 19  1  0
 19 20  1  0
 19 21  1  0
 19 22  1  0
 18 23  2  0
 23 24  1  0
 24 25  2  0
 25 26  1  0
 13  2  1  0
 26 14  2  0
 11  9  1  0
 25 17  1  0
M  END
>  <shape_align_shape_tanimoto>  (3) 
0.67888246114287587

>  <shape_align_color_tanimoto>  (3) 
0.074192368054146404

>  <metric>  (3) 
combo

>  <metric_score>  (3) 
0.377

>  <template_pid>  (3) 
3S3I

>  <template_shape_score>  (3) 
0.679

>  <template_color_score>  (3) 
0.074

>  <template_combo_score>  (3) 
0.377

$$$$
