4W9G_shape_pose
     RDKit          3D

 29 31  0  0  0  0  0  0  0  0999 V2000
   13.6553   49.5011   84.9205 C   0  0  0  0  0  0  0  0  0  0  0  0
   12.9095   50.7585   84.6863 C   0  0  0  0  0  0  0  0  0  0  0  0
   12.0393   51.1687   85.6733 C   0  0  0  0  0  0  0  0  0  0  0  0
   11.2859   52.3065   85.5310 C   0  0  0  0  0  0  0  0  0  0  0  0
   10.3327   52.8102   86.5465 C   0  0  0  0  0  0  0  0  0  0  0  0
   10.9066   53.7289   87.4908 N   0  0  0  0  0  0  0  0  0  0  0  0
   11.7370   53.3531   88.5780 C   0  0  0  0  0  0  0  0  0  0  0  0
   12.0598   52.1647   88.8306 O   0  0  0  0  0  0  0  0  0  0  0  0
   12.2444   54.4328   89.4560 C   0  0  2  0  0  0  0  0  0  0  0  0
   13.1364   55.3970   88.7577 C   0  0  0  0  0  0  0  0  0  0  0  0
   14.5489   55.1856   89.1938 C   0  0  1  0  0  0  0  0  0  0  0  0
   15.1121   56.3308   89.7963 O   0  0  0  0  0  0  0  0  0  0  0  0
   14.4856   54.0361   90.1430 C   0  0  0  0  0  0  0  0  0  0  0  0
   13.0829   53.9168   90.5210 N   0  0  0  0  0  0  0  0  0  0  0  0
   12.5464   53.3870   91.7276 C   0  0  0  0  0  0  0  0  0  0  0  0
   11.3149   53.3222   91.9716 O   0  0  0  0  0  0  0  0  0  0  0  0
   13.4834   52.8894   92.7406 C   0  0  0  0  0  0  0  0  0  0  0  0
   12.8458   52.3402   93.9782 C   0  0  0  0  0  0  0  0  0  0  0  0
   12.0015   53.3623   94.7068 C   0  0  0  0  0  0  0  0  0  0  0  0
   13.9702   51.9314   94.9070 C   0  0  0  0  0  0  0  0  0  0  0  0
   12.0038   51.1239   93.7125 C   0  0  0  0  0  0  0  0  0  0  0  0
   11.4338   53.0190   84.3667 C   0  0  0  0  0  0  0  0  0  0  0  0
   12.3010   52.6085   83.3864 C   0  0  0  0  0  0  0  0  0  0  0  0
   13.0876   51.4514   83.4970 C   0  0  0  0  0  0  0  0  0  0  0  0
   13.9994   51.0960   82.4619 C   0  0  0  0  0  0  0  0  0  0  0  0
   14.9931   50.2320   82.2465 C   0  0  0  0  0  0  0  0  0  0  0  0
   15.6253   50.2426   81.1038 N   0  0  0  0  0  0  0  0  0  0  0  0
   15.3597   51.0387   80.1479 C   0  0  0  0  0  0  0  0  0  0  0  0
   13.9523   52.0136   80.9014 S   0  0  0  0  0  0  0  0  0  0  0  0
  1  2  1  0
  2  3  2  0
  3  4  1  0
  4  5  1  0
  5  6  1  0
  6  7  1  0
  7  8  2  0
  9  7  1  6
  9 10  1  0
 10 11  1  0
 11 12  1  1
 11 13  1  0
 13 14  1  0
 14 15  1  0
 15 16  2  0
 15 17  1  0
 17 18  1  0
 18 19  1  0
 18 20  1  0
 18 21  1  0
  4 22  2  0
 22 23  1  0
 23 24  2  0
 24 25  1  0
 25 26  2  0
 26 27  1  0
 27 28  2  0
 28 29  1  0
 24  2  1  0
 29 25  1  0
 14  9  1  0
M  END
>  <shape_align_shape_tanimoto>  (1) 
0.73320364482537204

>  <shape_align_color_tanimoto>  (1) 
0.26960174274308779

>  <metric>  (1) 
shape

>  <metric_score>  (1) 
0.733

>  <template_pid>  (1) 
4W9G

>  <template_shape_score>  (1) 
0.733

>  <template_color_score>  (1) 
0.270

>  <template_combo_score>  (1) 
0.501

$$$$
4W9G_color_pose
     RDKit          3D

 29 31  0  0  0  0  0  0  0  0999 V2000
   12.7034   53.2477   82.0521 C   0  0  0  0  0  0  0  0  0  0  0  0
   12.4620   52.5100   83.3535 C   0  0  0  0  0  0  0  0  0  0  0  0
   11.6258   53.1458   84.3328 C   0  0  0  0  0  0  0  0  0  0  0  0
   11.3467   52.5409   85.5753 C   0  0  0  0  0  0  0  0  0  0  0  0
   10.4592   53.2717   86.5573 C   0  0  0  0  0  0  0  0  0  0  0  0
   11.1721   54.1701   87.4679 N   0  0  0  0  0  0  0  0  0  0  0  0
   11.9426   53.7190   88.6302 C   0  0  0  0  0  0  0  0  0  0  0  0
   12.0602   52.4828   88.9567 O   0  0  0  0  0  0  0  0  0  0  0  0
   12.6180   54.8347   89.4538 C   0  0  2  0  0  0  0  0  0  0  0  0
   13.6214   55.5004   88.5147 C   0  0  0  0  0  0  0  0  0  0  0  0
   14.9057   55.6622   89.4024 C   0  0  1  0  0  0  0  0  0  0  0  0
   14.7840   56.8612   90.1735 O   0  0  0  0  0  0  0  0  0  0  0  0
   14.8193   54.4552   90.3687 C   0  0  0  0  0  0  0  0  0  0  0  0
   13.3666   54.1970   90.5597 N   0  0  0  0  0  0  0  0  0  0  0  0
   12.7542   53.4584   91.6281 C   0  0  0  0  0  0  0  0  0  0  0  0
   11.4599   53.2862   91.7045 O   0  0  0  0  0  0  0  0  0  0  0  0
   13.6147   52.8515   92.7114 C   0  0  0  0  0  0  0  0  0  0  0  0
   12.8330   52.1014   93.7850 C   0  0  0  0  0  0  0  0  0  0  0  0
   13.9042   51.5591   94.7988 C   0  0  0  0  0  0  0  0  0  0  0  0
   12.0855   50.8737   93.2516 C   0  0  0  0  0  0  0  0  0  0  0  0
   11.8994   52.9966   94.6073 C   0  0  0  0  0  0  0  0  0  0  0  0
   11.9264   51.2827   85.8122 C   0  0  0  0  0  0  0  0  0  0  0  0
   12.7452   50.6615   84.8516 C   0  0  0  0  0  0  0  0  0  0  0  0
   13.0377   51.2677   83.5806 C   0  0  0  0  0  0  0  0  0  0  0  0
   13.9134   50.5217   82.6386 C   0  0  0  0  0  0  0  0  0  0  0  0
   14.4050   50.7136   81.3743 C   0  0  0  0  0  0  0  0  0  0  0  0
   15.1957   49.7504   80.8672 N   0  0  0  0  0  0  0  0  0  0  0  0
   15.5488   48.7240   81.3557 C   0  0  0  0  0  0  0  0  0  0  0  0
   14.6196   48.9177   83.0769 S   0  0  0  0  0  0  0  0  0  0  0  0
  1  2  1  0
  2  3  2  0
  3  4  1  0
  4  5  1  0
  5  6  1  0
  6  7  1  0
  7  8  2  0
  9  7  1  6
  9 10  1  0
 10 11  1  0
 11 12  1  1
 11 13  1  0
 13 14  1  0
 14 15  1  0
 15 16  2  0
 15 17  1  0
 17 18  1  0
 18 19  1  0
 18 20  1  0
 18 21  1  0
  4 22  2  0
 22 23  1  0
 23 24  2  0
 24 25  1  0
 25 26  2  0
 26 27  1  0
 27 28  2  0
 28 29  1  0
 24  2  1  0
 29 25  1  0
 14  9  1  0
M  END
>  <shape_align_shape_tanimoto>  (2) 
0.695789303146085

>  <shape_align_color_tanimoto>  (2) 
0.29608797522500035

>  <metric>  (2) 
color

>  <metric_score>  (2) 
0.296

>  <template_pid>  (2) 
4W9G

>  <template_shape_score>  (2) 
0.696

>  <template_color_score>  (2) 
0.296

>  <template_combo_score>  (2) 
0.496

$$$$
4W9G_combo_pose
     RDKit          3D

 29 31  0  0  0  0  0  0  0  0999 V2000
   13.6553   49.5011   84.9205 C   0  0  0  0  0  0  0  0  0  0  0  0
   12.9095   50.7585   84.6863 C   0  0  0  0  0  0  0  0  0  0  0  0
   12.0393   51.1687   85.6733 C   0  0  0  0  0  0  0  0  0  0  0  0
   11.2859   52.3065   85.5310 C   0  0  0  0  0  0  0  0  0  0  0  0
   10.3327   52.8102   86.5465 C   0  0  0  0  0  0  0  0  0  0  0  0
   10.9066   53.7289   87.4908 N   0  0  0  0  0  0  0  0  0  0  0  0
   11.7370   53.3531   88.5780 C   0  0  0  0  0  0  0  0  0  0  0  0
   12.0598   52.1647   88.8306 O   0  0  0  0  0  0  0  0  0  0  0  0
   12.2444   54.4328   89.4560 C   0  0  2  0  0  0  0  0  0  0  0  0
   13.1364   55.3970   88.7577 C   0  0  0  0  0  0  0  0  0  0  0  0
   14.5489   55.1856   89.1938 C   0  0  1  0  0  0  0  0  0  0  0  0
   15.1121   56.3308   89.7963 O   0  0  0  0  0  0  0  0  0  0  0  0
   14.4856   54.0361   90.1430 C   0  0  0  0  0  0  0  0  0  0  0  0
   13.0829   53.9168   90.5210 N   0  0  0  0  0  0  0  0  0  0  0  0
   12.5464   53.3870   91.7276 C   0  0  0  0  0  0  0  0  0  0  0  0
   11.3149   53.3222   91.9716 O   0  0  0  0  0  0  0  0  0  0  0  0
   13.4834   52.8894   92.7406 C   0  0  0  0  0  0  0  0  0  0  0  0
   12.8458   52.3402   93.9782 C   0  0  0  0  0  0  0  0  0  0  0  0
   12.0015   53.3623   94.7068 C   0  0  0  0  0  0  0  0  0  0  0  0
   13.9702   51.9314   94.9070 C   0  0  0  0  0  0  0  0  0  0  0  0
   12.0038   51.1239   93.7125 C   0  0  0  0  0  0  0  0  0  0  0  0
   11.4338   53.0190   84.3667 C   0  0  0  0  0  0  0  0  0  0  0  0
   12.3010   52.6085   83.3864 C   0  0  0  0  0  0  0  0  0  0  0  0
   13.0876   51.4514   83.4970 C   0  0  0  0  0  0  0  0  0  0  0  0
   13.9994   51.0960   82.4619 C   0  0  0  0  0  0  0  0  0  0  0  0
   14.9931   50.2320   82.2465 C   0  0  0  0  0  0  0  0  0  0  0  0
   15.6253   50.2426   81.1038 N   0  0  0  0  0  0  0  0  0  0  0  0
   15.3597   51.0387   80.1479 C   0  0  0  0  0  0  0  0  0  0  0  0
   13.9523   52.0136   80.9014 S   0  0  0  0  0  0  0  0  0  0  0  0
  1  2  1  0
  2  3  2  0
  3  4  1  0
  4  5  1  0
  5  6  1  0
  6  7  1  0
  7  8  2  0
  9  7  1  6
  9 10  1  0
 10 11  1  0
 11 12  1  1
 11 13  1  0
 13 14  1  0
 14 15  1  0
 15 16  2  0
 15 17  1  0
 17 18  1  0
 18 19  1  0
 18 20  1  0
 18 21  1  0
  4 22  2  0
 22 23  1  0
 23 24  2  0
 24 25  1  0
 25 26  2  0
 26 27  1  0
 27 28  2  0
 28 29  1  0
 24  2  1  0
 29 25  1  0
 14  9  1  0
M  END
>  <shape_align_shape_tanimoto>  (3) 
0.73320364482537204

>  <shape_align_color_tanimoto>  (3) 
0.26960174274308779

>  <metric>  (3) 
combo

>  <metric_score>  (3) 
0.501

>  <template_pid>  (3) 
4W9G

>  <template_shape_score>  (3) 
0.733

>  <template_color_score>  (3) 
0.270

>  <template_combo_score>  (3) 
0.501

$$$$
