3CIB_shape_pose
     RDKit          3D

 44 47  0  0  0  0  0  0  0  0999 V2000
   24.6319   16.3416   21.3572 C   0  0  0  0  0  0  0  0  0  0  0  0
   24.9677   16.2773   19.7705 C   0  0  0  0  0  0  0  0  0  0  0  0
   26.2929   15.4898   19.5122 C   0  0  0  0  0  0  0  0  0  0  0  0
   26.6828   15.2573   18.0743 N   0  0  0  0  0  0  0  0  0  0  0  0
   27.5552   16.1636   17.2182 C   0  0  0  0  0  0  0  0  0  0  0  0
   26.8559   17.1357   16.2266 C   0  0  0  0  0  0  0  0  0  0  0  0
   25.8994   18.2197   16.8087 C   0  0  0  0  0  0  0  0  0  0  0  0
   26.2683   13.9465   17.4062 C   0  0  0  0  0  0  0  0  0  0  0  0
   26.5553   13.7408   16.0956 O   0  0  0  0  0  0  0  0  0  0  0  0
   25.5467   12.8137   18.1121 C   0  0  0  0  0  0  0  0  0  0  0  0
   26.3146   11.5581   18.2516 C   0  0  0  0  0  0  0  0  0  0  0  0
   25.8007   10.3911   18.9242 C   0  0  0  0  0  0  0  0  0  0  0  0
   26.6412    9.0564   19.0491 C   0  0  0  0  0  0  0  0  0  0  0  0
   24.4457   10.4619   19.4977 C   0  0  0  0  0  0  0  0  0  0  0  0
   23.6411   11.6707   19.3932 C   0  0  0  0  0  0  0  0  0  0  0  0
   22.2597   11.8168   20.0427 C   0  0  0  0  0  0  0  0  0  0  0  0
   21.3809   12.7299   19.8040 O   0  0  0  0  0  0  0  0  0  0  0  0
   21.9027   10.7671   21.0867 N   0  0  0  0  0  0  0  0  0  0  0  0
   20.5830   10.7767   21.8440 C   0  0  1  0  0  0  0  0  0  0  0  0
   19.6757    9.5448   21.8173 C   0  0  0  0  0  0  0  0  0  0  0  0
   18.3802    9.8389   22.7161 C   0  0  0  0  0  0  0  0  0  0  0  0
   18.3666    9.4045   24.1111 C   0  0  0  0  0  0  0  0  0  0  0  0
   17.2079    9.6521   24.9907 C   0  0  0  0  0  0  0  0  0  0  0  0
   17.2001    9.2302   26.3408 F   0  0  0  0  0  0  0  0  0  0  0  0
   16.0792   10.3544   24.3958 C   0  0  0  0  0  0  0  0  0  0  0  0
   16.0851   10.7893   23.0094 C   0  0  0  0  0  0  0  0  0  0  0  0
   14.9327   11.4846   22.4720 F   0  0  0  0  0  0  0  0  0  0  0  0
   17.2446   10.5384   22.1333 C   0  0  0  0  0  0  0  0  0  0  0  0
   20.8951   11.3497   23.2961 C   0  0  2  0  0  0  0  0  0  0  0  0
   21.3322   12.8029   22.9634 O   0  0  0  0  0  0  0  0  0  0  0  0
   22.1673   10.7612   24.0052 C   0  0  1  0  0  0  0  0  0  0  0  0
   22.5704   11.7372   25.2434 C   0  0  0  0  0  0  0  0  0  0  0  0
   24.0627   11.3551   25.6931 C   0  0  1  0  0  0  0  0  0  0  0  0
   24.6110   12.4145   26.7041 C   0  0  0  0  0  0  0  0  0  0  0  0
   23.8050   12.5669   28.0178 C   0  0  0  0  0  0  0  0  0  0  0  0
   24.1473   11.7655   29.1782 C   0  0  0  0  0  0  0  0  0  0  0  0
   23.4063   11.9103   30.4186 C   0  0  0  0  0  0  0  0  0  0  0  0
   22.2981   12.8525   30.5624 C   0  0  0  0  0  0  0  0  0  0  0  0
   21.9529   13.6622   29.3872 C   0  0  0  0  0  0  0  0  0  0  0  0
   22.6891   13.5261   28.1354 C   0  0  0  0  0  0  0  0  0  0  0  0
   23.9744    9.8693   26.2351 C   0  0  0  0  0  0  0  0  0  0  0  0
   23.5480    8.9607   24.9753 C   0  0  0  0  0  0  0  0  0  0  0  0
   22.1046    9.3630   24.5520 N   0  0  0  0  0  0  0  0  0  0  0  0
   24.2356   12.8187   18.6897 C   0  0  0  0  0  0  0  0  0  0  0  0
  1  2  1  0
  2  3  1  0
  3  4  1  0
  4  5  1  0
  5  6  1  0
  6  7  1  0
  4  8  1  0
  8  9  2  0
  8 10  1  0
 10 11  2  0
 11 12  1  0
 12 13  1  0
 12 14  2  0
 14 15  1  0
 15 16  1  0
 16 17  2  0
 16 18  1  0
 18 19  1  0
 19 20  1  1
 20 21  1  0
 21 22  2  0
 22 23  1  0
 23 24  1  0
 23 25  2  0
 25 26  1  0
 26 27  1  0
 26 28  2  0
 19 29  1  0
 29 30  1  6
 29 31  1  0
 31 32  1  1
 32 33  1  0
 33 34  1  1
 34 35  1  0
 35 36  2  0
 36 37  1  0
 37 38  2  0
 38 39  1  0
 39 40  2  0
 33 41  1  0
 41 42  1  0
 42 43  1  0
 15 44  2  0
 44 10  1  0
 28 21  1  0
 43 31  1  0
 40 35  1  0
M  CHG  1  43   1
M  END
>  <shape_align_shape_tanimoto>  (1) 
0.56840083812205378

>  <shape_align_color_tanimoto>  (1) 
0.10099015039699971

>  <metric>  (1) 
shape

>  <metric_score>  (1) 
0.568

>  <template_pid>  (1) 
3CIB

>  <template_shape_score>  (1) 
0.568

>  <template_color_score>  (1) 
0.101

>  <template_combo_score>  (1) 
0.335

$$$$
3CIB_color_pose
     RDKit          3D

 44 47  0  0  0  0  0  0  0  0999 V2000
   27.3918   15.2431   22.2763 C   0  0  0  0  0  0  0  0  0  0  0  0
   27.3121   15.5296   20.7953 C   0  0  0  0  0  0  0  0  0  0  0  0
   25.9076   15.5321   20.2596 C   0  0  0  0  0  0  0  0  0  0  0  0
   25.9071   15.8096   18.8372 N   0  0  0  0  0  0  0  0  0  0  0  0
   25.8197   17.2084   18.4462 C   0  0  0  0  0  0  0  0  0  0  0  0
   24.3844   17.6581   18.2810 C   0  0  0  0  0  0  0  0  0  0  0  0
   24.3856   19.1167   17.8778 C   0  0  0  0  0  0  0  0  0  0  0  0
   25.9879   14.7567   17.8531 C   0  0  0  0  0  0  0  0  0  0  0  0
   25.9872   15.0179   16.6151 O   0  0  0  0  0  0  0  0  0  0  0  0
   26.0698   13.3908   18.3665 C   0  0  0  0  0  0  0  0  0  0  0  0
   27.2489   12.6837   18.4519 C   0  0  0  0  0  0  0  0  0  0  0  0
   27.2238   11.3903   18.9660 C   0  0  0  0  0  0  0  0  0  0  0  0
   28.5033   10.6331   19.0536 C   0  0  0  0  0  0  0  0  0  0  0  0
   26.0169   10.8418   19.3802 C   0  0  0  0  0  0  0  0  0  0  0  0
   24.8215   11.5293   19.3047 C   0  0  0  0  0  0  0  0  0  0  0  0
   23.5500   10.9448   19.7606 C   0  0  0  0  0  0  0  0  0  0  0  0
   22.5068   11.6201   19.4602 O   0  0  0  0  0  0  0  0  0  0  0  0
   23.5239    9.7401   20.4682 N   0  0  0  0  0  0  0  0  0  0  0  0
   22.2949    9.0970   20.9558 C   0  0  1  0  0  0  0  0  0  0  0  0
   22.1270    7.7461   20.2908 C   0  0  0  0  0  0  0  0  0  0  0  0
   23.2645    6.8306   20.5706 C   0  0  0  0  0  0  0  0  0  0  0  0
   23.2476    5.9574   21.6569 C   0  0  0  0  0  0  0  0  0  0  0  0
   24.2997    5.1086   21.9355 C   0  0  0  0  0  0  0  0  0  0  0  0
   24.2277    4.2700   23.0208 F   0  0  0  0  0  0  0  0  0  0  0  0
   25.4335    5.0969   21.1250 C   0  0  0  0  0  0  0  0  0  0  0  0
   25.4636    5.9556   20.0468 C   0  0  0  0  0  0  0  0  0  0  0  0
   26.5640    5.9544   19.2452 F   0  0  0  0  0  0  0  0  0  0  0  0
   24.4010    6.8130   19.7651 C   0  0  0  0  0  0  0  0  0  0  0  0
   22.2885    8.8998   22.4394 C   0  0  2  0  0  0  0  0  0  0  0  0
   21.0721    8.2703   22.7769 O   0  0  0  0  0  0  0  0  0  0  0  0
   22.4446   10.1767   23.2342 C   0  0  1  0  0  0  0  0  0  0  0  0
   21.3175   11.0992   22.8752 C   0  0  0  0  0  0  0  0  0  0  0  0
   20.8499   11.9847   23.9690 C   0  0  1  0  0  0  0  0  0  0  0  0
   19.5919   11.5799   24.6608 C   0  0  0  0  0  0  0  0  0  0  0  0
   18.3956   11.4776   23.8254 C   0  0  0  0  0  0  0  0  0  0  0  0
   18.0436   10.2681   23.2343 C   0  0  0  0  0  0  0  0  0  0  0  0
   16.9125   10.1584   22.4331 C   0  0  0  0  0  0  0  0  0  0  0  0
   16.1637   11.2827   22.2508 C   0  0  0  0  0  0  0  0  0  0  0  0
   16.4515   12.4958   22.7994 C   0  0  0  0  0  0  0  0  0  0  0  0
   17.5893   12.5990   23.6033 C   0  0  0  0  0  0  0  0  0  0  0  0
   21.9678   12.1828   24.9589 C   0  0  0  0  0  0  0  0  0  0  0  0
   22.4852   10.9010   25.5347 C   0  0  0  0  0  0  0  0  0  0  0  0
   22.4519    9.7934   24.6239 N   0  0  0  0  0  0  0  0  0  0  0  0
   24.8914   12.8156   18.7860 C   0  0  0  0  0  0  0  0  0  0  0  0
  1  2  1  0
  2  3  1  0
  3  4  1  0
  4  5  1  0
  5  6  1  0
  6  7  1  0
  4  8  1  0
  8  9  2  0
  8 10  1  0
 10 11  2  0
 11 12  1  0
 12 13  1  0
 12 14  2  0
 14 15  1  0
 15 16  1  0
 16 17  2  0
 16 18  1  0
 18 19  1  0
 19 20  1  6
 20 21  1  0
 21 22  2  0
 22 23  1  0
 23 24  1  0
 23 25  2  0
 25 26  1  0
 26 27  1  0
 26 28  2  0
 19 29  1  0
 29 30  1  1
 29 31  1  0
 31 32  1  1
 32 33  1  0
 33 34  1  1
 34 35  1  0
 35 36  2  0
 36 37  1  0
 37 38  2  0
 38 39  1  0
 39 40  2  0
 33 41  1  0
 41 42  1  0
 42 43  1  0
 15 44  2  0
 44 10  1  0
 28 21  1  0
 43 31  1  0
 40 35  1  0
M  CHG  1  43   1
M  END
>  <shape_align_shape_tanimoto>  (2) 
0.42270933212813838

>  <shape_align_color_tanimoto>  (2) 
0.13876554160204235

>  <metric>  (2) 
color

>  <metric_score>  (2) 
0.139

>  <template_pid>  (2) 
3CIB

>  <template_shape_score>  (2) 
0.423

>  <template_color_score>  (2) 
0.139

>  <template_combo_score>  (2) 
0.281

$$$$
3CIB_combo_pose
     RDKit          3D

 44 47  0  0  0  0  0  0  0  0999 V2000
   24.6319   16.3416   21.3572 C   0  0  0  0  0  0  0  0  0  0  0  0
   24.9677   16.2773   19.7705 C   0  0  0  0  0  0  0  0  0  0  0  0
   26.2929   15.4898   19.5122 C   0  0  0  0  0  0  0  0  0  0  0  0
   26.6828   15.2573   18.0743 N   0  0  0  0  0  0  0  0  0  0  0  0
   27.5552   16.1636   17.2182 C   0  0  0  0  0  0  0  0  0  0  0  0
   26.8559   17.1357   16.2266 C   0  0  0  0  0  0  0  0  0  0  0  0
   25.8994   18.2197   16.8087 C   0  0  0  0  0  0  0  0  0  0  0  0
   26.2683   13.9465   17.4062 C   0  0  0  0  0  0  0  0  0  0  0  0
   26.5553   13.7408   16.0956 O   0  0  0  0  0  0  0  0  0  0  0  0
   25.5467   12.8137   18.1121 C   0  0  0  0  0  0  0  0  0  0  0  0
   26.3146   11.5581   18.2516 C   0  0  0  0  0  0  0  0  0  0  0  0
   25.8007   10.3911   18.9242 C   0  0  0  0  0  0  0  0  0  0  0  0
   26.6412    9.0564   19.0491 C   0  0  0  0  0  0  0  0  0  0  0  0
   24.4457   10.4619   19.4977 C   0  0  0  0  0  0  0  0  0  0  0  0
   23.6411   11.6707   19.3932 C   0  0  0  0  0  0  0  0  0  0  0  0
   22.2597   11.8168   20.0427 C   0  0  0  0  0  0  0  0  0  0  0  0
   21.3809   12.7299   19.8040 O   0  0  0  0  0  0  0  0  0  0  0  0
   21.9027   10.7671   21.0867 N   0  0  0  0  0  0  0  0  0  0  0  0
   20.5830   10.7767   21.8440 C   0  0  1  0  0  0  0  0  0  0  0  0
   19.6757    9.5448   21.8173 C   0  0  0  0  0  0  0  0  0  0  0  0
   18.3802    9.8389   22.7161 C   0  0  0  0  0  0  0  0  0  0  0  0
   18.3666    9.4045   24.1111 C   0  0  0  0  0  0  0  0  0  0  0  0
   17.2079    9.6521   24.9907 C   0  0  0  0  0  0  0  0  0  0  0  0
   17.2001    9.2302   26.3408 F   0  0  0  0  0  0  0  0  0  0  0  0
   16.0792   10.3544   24.3958 C   0  0  0  0  0  0  0  0  0  0  0  0
   16.0851   10.7893   23.0094 C   0  0  0  0  0  0  0  0  0  0  0  0
   14.9327   11.4846   22.4720 F   0  0  0  0  0  0  0  0  0  0  0  0
   17.2446   10.5384   22.1333 C   0  0  0  0  0  0  0  0  0  0  0  0
   20.8951   11.3497   23.2961 C   0  0  2  0  0  0  0  0  0  0  0  0
   21.3322   12.8029   22.9634 O   0  0  0  0  0  0  0  0  0  0  0  0
   22.1673   10.7612   24.0052 C   0  0  1  0  0  0  0  0  0  0  0  0
   22.5704   11.7372   25.2434 C   0  0  0  0  0  0  0  0  0  0  0  0
   24.0627   11.3551   25.6931 C   0  0  1  0  0  0  0  0  0  0  0  0
   24.6110   12.4145   26.7041 C   0  0  0  0  0  0  0  0  0  0  0  0
   23.8050   12.5669   28.0178 C   0  0  0  0  0  0  0  0  0  0  0  0
   24.1473   11.7655   29.1782 C   0  0  0  0  0  0  0  0  0  0  0  0
   23.4063   11.9103   30.4186 C   0  0  0  0  0  0  0  0  0  0  0  0
   22.2981   12.8525   30.5624 C   0  0  0  0  0  0  0  0  0  0  0  0
   21.9529   13.6622   29.3872 C   0  0  0  0  0  0  0  0  0  0  0  0
   22.6891   13.5261   28.1354 C   0  0  0  0  0  0  0  0  0  0  0  0
   23.9744    9.8693   26.2351 C   0  0  0  0  0  0  0  0  0  0  0  0
   23.5480    8.9607   24.9753 C   0  0  0  0  0  0  0  0  0  0  0  0
   22.1046    9.3630   24.5520 N   0  0  0  0  0  0  0  0  0  0  0  0
   24.2356   12.8187   18.6897 C   0  0  0  0  0  0  0  0  0  0  0  0
  1  2  1  0
  2  3  1  0
  3  4  1  0
  4  5  1  0
  5  6  1  0
  6  7  1  0
  4  8  1  0
  8  9  2  0
  8 10  1  0
 10 11  2  0
 11 12  1  0
 12 13  1  0
 12 14  2  0
 14 15  1  0
 15 16  1  0
 16 17  2  0
 16 18  1  0
 18 19  1  0
 19 20  1  1
 20 21  1  0
 21 22  2  0
 22 23  1  0
 23 24  1  0
 23 25  2  0
 25 26  1  0
 26 27  1  0
 26 28  2  0
 19 29  1  0
 29 30  1  6
 29 31  1  0
 31 32  1  1
 32 33  1  0
 33 34  1  1
 34 35  1  0
 35 36  2  0
 36 37  1  0
 37 38  2  0
 38 39  1  0
 39 40  2  0
 33 41  1  0
 41 42  1  0
 42 43  1  0
 15 44  2  0
 44 10  1  0
 28 21  1  0
 43 31  1  0
 40 35  1  0
M  CHG  1  43   1
M  END
>  <shape_align_shape_tanimoto>  (3) 
0.56840083812205378

>  <shape_align_color_tanimoto>  (3) 
0.10099015039699971

>  <metric>  (3) 
combo

>  <metric_score>  (3) 
0.335

>  <template_pid>  (3) 
3CIB

>  <template_shape_score>  (3) 
0.568

>  <template_color_score>  (3) 
0.101

>  <template_combo_score>  (3) 
0.335

$$$$
