5IF6_shape_pose
     RDKit          3D

 24 27  0  0  0  0  0  0  0  0999 V2000
   14.1935   77.8526    3.3805 C   0  0  0  0  0  0  0  0  0  0  0  0
   14.6399   76.6983    4.2337 C   0  0  0  0  0  0  0  0  0  0  0  0
   15.0778   75.7202    3.6498 O   0  0  0  0  0  0  0  0  0  0  0  0
   14.5167   76.8336    5.6883 C   0  0  1  0  0  0  0  0  0  0  0  0
   13.9823   78.0604    6.0732 O   0  0  0  0  0  0  0  0  0  0  0  0
   13.5790   75.7786    6.2521 C   0  0  0  0  0  0  0  0  0  0  0  0
   14.0421   75.5372    7.6922 C   0  0  0  0  0  0  0  0  0  0  0  0
   15.1706   76.5092    7.8740 C   0  0  1  0  0  0  0  0  0  0  0  0
   16.2129   76.0800    8.8389 C   0  0  2  0  0  0  0  0  0  0  0  0
   15.6178   76.2013   10.2463 C   0  0  0  0  0  0  0  0  0  0  0  0
   16.6168   75.8919   11.3056 C   0  0  0  0  0  0  0  0  0  0  0  0
   18.0046   76.2408   10.9950 C   0  0  0  0  0  0  0  0  0  0  0  0
   18.8620   76.3106   12.0224 C   0  0  0  0  0  0  0  0  0  0  0  0
   20.2680   76.6491   11.8332 C   0  0  0  0  0  0  0  0  0  0  0  0
   21.1410   76.3406   12.6815 O   0  0  0  0  0  0  0  0  0  0  0  0
   20.6905   77.3674   10.6287 C   0  0  0  0  0  0  0  0  0  0  0  0
   19.6233   77.5555    9.6121 C   0  0  0  0  0  0  0  0  0  0  0  0
   18.5256   76.5205    9.6335 C   0  0  1  0  0  0  0  0  0  0  0  0
   19.1125   75.2335    9.1129 C   0  0  0  0  0  0  0  0  0  0  0  0
   17.3761   77.0123    8.8002 C   0  0  1  0  0  0  0  0  0  0  0  0
   17.8483   77.4039    7.4471 C   0  0  0  0  0  0  0  0  0  0  0  0
   16.7461   77.6841    6.4670 C   0  0  0  0  0  0  0  0  0  0  0  0
   15.7582   76.5674    6.4783 C   0  0  2  0  0  0  0  0  0  0  0  0
   16.3902   75.2509    6.0919 C   0  0  0  0  0  0  0  0  0  0  0  0
  1  2  1  0
  2  3  2  0
  2  4  1  0
  4  5  1  6
  4  6  1  0
  6  7  1  0
  8  7  1  6
  8  9  1  0
  9 10  1  1
 10 11  1  0
 11 12  1  0
 12 13  2  0
 13 14  1  0
 14 15  2  0
 14 16  1  0
 16 17  1  0
 17 18  1  0
 18 19  1  6
 18 20  1  0
 20 21  1  6
 21 22  1  0
 22 23  1  0
 23 24  1  6
 23  4  1  0
 23  8  1  0
 20  9  1  0
 18 12  1  0
M  END
>  <shape_align_shape_tanimoto>  (1) 
0.8947907928369544

>  <shape_align_color_tanimoto>  (1) 
0.1926095345092883

>  <metric>  (1) 
shape

>  <metric_score>  (1) 
0.895

>  <template_pid>  (1) 
5IF6

>  <template_shape_score>  (1) 
0.895

>  <template_color_score>  (1) 
0.193

>  <template_combo_score>  (1) 
0.544

$$$$
5IF6_color_pose
     RDKit          3D

 24 27  0  0  0  0  0  0  0  0999 V2000
   13.2522   75.3488    4.6217 C   0  0  0  0  0  0  0  0  0  0  0  0
   14.1061   76.5418    4.6691 C   0  0  0  0  0  0  0  0  0  0  0  0
   14.3755   77.0689    3.5756 O   0  0  0  0  0  0  0  0  0  0  0  0
   14.6716   77.1821    5.8604 C   0  0  1  0  0  0  0  0  0  0  0  0
   15.2424   78.4338    5.5117 O   0  0  0  0  0  0  0  0  0  0  0  0
   13.5907   77.3755    6.9084 C   0  0  0  0  0  0  0  0  0  0  0  0
   14.0280   76.4283    8.0463 C   0  0  0  0  0  0  0  0  0  0  0  0
   15.4796   76.7218    7.9672 C   0  0  1  0  0  0  0  0  0  0  0  0
   16.4107   76.0764    8.8956 C   0  0  2  0  0  0  0  0  0  0  0  0
   15.9584   76.0484   10.3277 C   0  0  0  0  0  0  0  0  0  0  0  0
   17.0234   75.3163   11.1155 C   0  0  0  0  0  0  0  0  0  0  0  0
   18.2910   76.0446   11.0009 C   0  0  0  0  0  0  0  0  0  0  0  0
   19.0398   76.1678   12.0860 C   0  0  0  0  0  0  0  0  0  0  0  0
   20.3206   76.8697   12.0975 C   0  0  0  0  0  0  0  0  0  0  0  0
   21.1938   76.7229   12.9725 O   0  0  0  0  0  0  0  0  0  0  0  0
   20.5787   77.8156   10.9840 C   0  0  0  0  0  0  0  0  0  0  0  0
   19.3769   77.9775   10.0866 C   0  0  0  0  0  0  0  0  0  0  0  0
   18.7368   76.6306    9.7213 C   0  0  1  0  0  0  0  0  0  0  0  0
   19.8664   75.8080    9.1338 C   0  0  0  0  0  0  0  0  0  0  0  0
   17.7043   76.8863    8.7109 C   0  0  1  0  0  0  0  0  0  0  0  0
   18.1458   76.6044    7.2887 C   0  0  0  0  0  0  0  0  0  0  0  0
   17.1472   77.0633    6.2651 C   0  0  0  0  0  0  0  0  0  0  0  0
   15.8067   76.4267    6.5289 C   0  0  2  0  0  0  0  0  0  0  0  0
   15.8192   74.9963    6.1476 C   0  0  0  0  0  0  0  0  0  0  0  0
  1  2  1  0
  2  3  2  0
  2  4  1  0
  4  5  1  6
  4  6  1  0
  6  7  1  0
  8  7  1  1
  8  9  1  0
  9 10  1  1
 10 11  1  0
 11 12  1  0
 12 13  2  0
 13 14  1  0
 14 15  2  0
 14 16  1  0
 16 17  1  0
 17 18  1  0
 18 19  1  6
 18 20  1  0
 20 21  1  6
 21 22  1  0
 22 23  1  0
 23 24  1  1
 23  4  1  0
 23  8  1  0
 20  9  1  0
 18 12  1  0
M  END
>  <shape_align_shape_tanimoto>  (2) 
0.82386612404932835

>  <shape_align_color_tanimoto>  (2) 
0.26519150768130528

>  <metric>  (2) 
color

>  <metric_score>  (2) 
0.265

>  <template_pid>  (2) 
5IF6

>  <template_shape_score>  (2) 
0.824

>  <template_color_score>  (2) 
0.265

>  <template_combo_score>  (2) 
0.545

$$$$
5IF6_combo_pose
     RDKit          3D

 24 27  0  0  0  0  0  0  0  0999 V2000
   15.0806   75.6843    3.3308 C   0  0  0  0  0  0  0  0  0  0  0  0
   14.6036   76.7539    4.2326 C   0  0  0  0  0  0  0  0  0  0  0  0
   14.2723   77.8168    3.6694 O   0  0  0  0  0  0  0  0  0  0  0  0
   14.4824   76.6982    5.6745 C   0  0  1  0  0  0  0  0  0  0  0  0
   13.9571   77.9500    6.0883 O   0  0  0  0  0  0  0  0  0  0  0  0
   13.6005   75.6609    6.2667 C   0  0  0  0  0  0  0  0  0  0  0  0
   14.1145   75.4126    7.6898 C   0  0  0  0  0  0  0  0  0  0  0  0
   15.1436   76.4796    7.8718 C   0  0  1  0  0  0  0  0  0  0  0  0
   16.2284   76.1368    8.8303 C   0  0  2  0  0  0  0  0  0  0  0  0
   15.6419   76.4755   10.2107 C   0  0  0  0  0  0  0  0  0  0  0  0
   16.6043   75.9170   11.2176 C   0  0  0  0  0  0  0  0  0  0  0  0
   17.9936   76.2664   10.9423 C   0  0  0  0  0  0  0  0  0  0  0  0
   18.8592   76.2069   11.9685 C   0  0  0  0  0  0  0  0  0  0  0  0
   20.2628   76.5449   11.7551 C   0  0  0  0  0  0  0  0  0  0  0  0
   21.1629   75.9955   12.4028 O   0  0  0  0  0  0  0  0  0  0  0  0
   20.5859   77.5791   10.7266 C   0  0  0  0  0  0  0  0  0  0  0  0
   19.3817   77.9112    9.8790 C   0  0  0  0  0  0  0  0  0  0  0  0
   18.5269   76.6822    9.6199 C   0  0  1  0  0  0  0  0  0  0  0  0
   19.4477   75.6062    9.1520 C   0  0  0  0  0  0  0  0  0  0  0  0
   17.4212   77.0428    8.6688 C   0  0  1  0  0  0  0  0  0  0  0  0
   17.8618   77.2818    7.2760 C   0  0  0  0  0  0  0  0  0  0  0  0
   16.6516   77.7074    6.4610 C   0  0  0  0  0  0  0  0  0  0  0  0
   15.7488   76.5212    6.4552 C   0  0  2  0  0  0  0  0  0  0  0  0
   16.3897   75.2177    6.1185 C   0  0  0  0  0  0  0  0  0  0  0  0
  1  2  1  0
  2  3  2  0
  2  4  1  0
  4  5  1  1
  4  6  1  0
  6  7  1  0
  8  7  1  6
  8  9  1  0
  9 10  1  1
 10 11  1  0
 11 12  1  0
 12 13  2  0
 13 14  1  0
 14 15  2  0
 14 16  1  0
 16 17  1  0
 17 18  1  0
 18 19  1  6
 18 20  1  0
 20 21  1  6
 21 22  1  0
 22 23  1  0
 23 24  1  6
 23  4  1  0
 23  8  1  0
 20  9  1  0
 18 12  1  0
M  END
>  <shape_align_shape_tanimoto>  (3) 
0.88328716499877225

>  <shape_align_color_tanimoto>  (3) 
0.25218993471917983

>  <metric>  (3) 
combo

>  <metric_score>  (3) 
0.568

>  <template_pid>  (3) 
5IF6

>  <template_shape_score>  (3) 
0.883

>  <template_color_score>  (3) 
0.252

>  <template_combo_score>  (3) 
0.568

$$$$
