1U9L_shape_pose
     RDKit          3D

 57 57  0  0  0  0  0  0  0  0999 V2000
   14.2626   -6.8099  -27.0321 C   0  0  0  0  0  0  0  0  0  0  0  0
   13.1747   -6.0723  -27.7480 C   0  0  0  0  0  0  0  0  0  0  0  0
   13.6184   -5.2500  -28.9339 C   0  0  2  0  0  0  0  0  0  0  0  0
   12.4057   -4.5782  -29.5275 C   0  0  0  0  0  0  0  0  0  0  0  0
   14.5783   -5.8764  -29.8332 C   0  0  2  0  0  0  0  0  0  0  0  0
   15.8841   -6.1384  -29.1856 N   0  0  0  0  0  0  0  0  0  0  0  0
   16.7253   -5.0529  -28.8566 C   0  0  0  0  0  0  0  0  0  0  0  0
   16.2626   -3.8877  -29.1432 O   0  0  0  0  0  0  0  0  0  0  0  0
   18.0495   -5.0760  -28.2386 C   0  0  2  0  0  0  0  0  0  0  0  0
   18.1852   -5.7823  -26.9455 C   0  0  0  0  0  0  0  0  0  0  0  0
   18.2159   -4.7139  -25.8575 C   0  0  0  0  0  0  0  0  0  0  0  0
   17.7683   -3.4837  -26.6117 C   0  0  0  0  0  0  0  0  0  0  0  0
   18.4209   -3.6688  -27.8989 N   0  0  0  0  0  0  0  0  0  0  0  0
   19.1683   -2.7984  -28.7041 C   0  0  0  0  0  0  0  0  0  0  0  0
   19.6048   -3.3137  -29.8085 O   0  0  0  0  0  0  0  0  0  0  0  0
   19.4745   -1.4333  -28.4440 C   0  0  2  0  0  0  0  0  0  0  0  0
   20.8647   -1.0309  -29.0370 C   0  0  0  0  0  0  0  0  0  0  0  0
   20.9365    0.4056  -28.7637 C   0  0  0  0  0  0  0  0  0  0  0  0
   22.1177    1.2199  -29.2377 C   0  0  0  0  0  0  0  0  0  0  0  0
   21.6618    2.5854  -28.9332 N   0  0  0  0  0  0  0  0  0  0  0  0
   22.2525    3.7667  -29.2944 C   0  0  0  0  0  0  0  0  0  0  0  0
   21.5418    4.9873  -28.8488 N   0  0  0  0  0  0  0  0  0  0  0  0
   23.2424    3.8882  -29.9057 N   0  0  0  0  0  0  0  0  0  0  0  0
   19.4767   -0.9646  -27.0849 N   0  0  0  0  0  0  0  0  0  0  0  0
   18.8596    0.1784  -26.5524 C   0  0  0  0  0  0  0  0  0  0  0  0
   18.1713    0.9860  -27.2268 O   0  0  0  0  0  0  0  0  0  0  0  0
   19.0479    0.4567  -25.1132 C   0  0  1  0  0  0  0  0  0  0  0  0
   19.1599    1.9187  -24.9854 N   0  0  0  0  0  0  0  0  0  0  0  0
   18.0044   -0.0875  -24.2224 C   0  0  0  0  0  0  0  0  0  0  0  0
   16.6666    0.4628  -24.5220 C   0  0  0  0  0  0  0  0  0  0  0  0
   15.6132    0.1051  -23.6188 N   0  0  0  0  0  0  0  0  0  0  0  0
   16.3609    1.2035  -25.4721 O   0  0  0  0  0  0  0  0  0  0  0  0
   14.8560   -5.3288  -31.1615 C   0  0  0  0  0  0  0  0  0  0  0  0
   16.0867   -5.1119  -31.4460 O   0  0  0  0  0  0  0  0  0  0  0  0
   13.9338   -5.0122  -32.1828 N   0  0  0  0  0  0  0  0  0  0  0  0
   14.3370   -4.5125  -33.4656 C   0  0  1  0  0  0  0  0  0  0  0  0
   13.8823   -5.3707  -34.5986 C   0  0  0  0  0  0  0  0  0  0  0  0
   12.4098   -5.5938  -34.7161 C   0  0  0  0  0  0  0  0  0  0  0  0
   11.5881   -4.3440  -34.8600 C   0  0  0  0  0  0  0  0  0  0  0  0
   11.8003   -6.5516  -33.7712 C   0  0  0  0  0  0  0  0  0  0  0  0
   14.1499   -3.0955  -33.7549 C   0  0  0  0  0  0  0  0  0  0  0  0
   14.5970   -2.6962  -34.8975 O   0  0  0  0  0  0  0  0  0  0  0  0
   13.5497   -2.1224  -32.9471 N   0  0  0  0  0  0  0  0  0  0  0  0
   13.4870   -0.7230  -33.4323 C   0  0  1  0  0  0  0  0  0  0  0  0
   12.1266   -0.1548  -33.4134 C   0  0  0  0  0  0  0  0  0  0  0  0
   12.1073    1.1474  -33.8802 O   0  0  0  0  0  0  0  0  0  0  0  0
   14.4966    0.0394  -32.6067 C   0  0  0  0  0  0  0  0  0  0  0  0
   15.0529   -0.7383  -31.7355 O   0  0  0  0  0  0  0  0  0  0  0  0
   14.7914    1.3910  -32.7618 N   0  0  0  0  0  0  0  0  0  0  0  0
   15.7187    2.2150  -32.0309 C   0  0  1  0  0  0  0  0  0  0  0  0
   15.9631    1.5923  -30.6618 C   0  0  0  0  0  0  0  0  0  0  0  0
   14.6973    1.5326  -29.8709 C   0  0  0  0  0  0  0  0  0  0  0  0
   14.2434    2.9789  -29.6759 C   0  0  0  0  0  0  0  0  0  0  0  0
   14.9047    0.7892  -28.5975 C   0  0  0  0  0  0  0  0  0  0  0  0
   16.9671    2.4366  -32.7427 C   0  0  0  0  0  0  0  0  0  0  0  0
   16.9664    3.2519  -33.7135 O   0  0  0  0  0  0  0  0  0  0  0  0
   18.1276    1.7771  -32.3711 O   0  0  0  0  0  0  0  0  0  0  0  0
  1  2  1  0
  2  3  1  0
  3  4  1  6
  3  5  1  0
  5  6  1  1
  6  7  1  0
  7  8  2  0
  9  7  1  1
  9 10  1  0
 10 11  1  0
 11 12  1  0
 12 13  1  0
 13 14  1  0
 14 15  2  0
 14 16  1  0
 16 17  1  1
 17 18  1  0
 18 19  1  0
 19 20  1  0
 20 21  1  0
 21 22  1  0
 21 23  2  0
 16 24  1  0
 24 25  1  0
 25 26  2  0
 25 27  1  0
 27 28  1  6
 27 29  1  0
 29 30  1  0
 30 31  1  0
 30 32  2  0
  5 33  1  0
 33 34  2  0
 33 35  1  0
 35 36  1  0
 36 37  1  6
 37 38  1  0
 38 39  1  0
 38 40  1  0
 36 41  1  0
 41 42  2  0
 41 43  1  0
 43 44  1  0
 44 45  1  1
 45 46  1  0
 44 47  1  0
 47 48  2  0
 47 49  1  0
 49 50  1  0
 50 51  1  1
 51 52  1  0
 52 53  1  0
 52 54  1  0
 50 55  1  0
 55 56  2  0
 55 57  1  0
 13  9  1  0
M  CHG  3  23   1  28   1  57  -1
M  END
>  <shape_align_shape_tanimoto>  (1) 
0.47094297066488661

>  <shape_align_color_tanimoto>  (1) 
0.011206585837660685

>  <metric>  (1) 
shape

>  <metric_score>  (1) 
0.471

>  <template_pid>  (1) 
1U9L

>  <template_shape_score>  (1) 
0.471

>  <template_color_score>  (1) 
0.011

>  <template_combo_score>  (1) 
0.241

$$$$
1U9L_color_pose
     RDKit          3D

 57 57  0  0  0  0  0  0  0  0999 V2000
   11.2877    0.2960  -31.0771 C   0  0  0  0  0  0  0  0  0  0  0  0
   12.4959   -0.6106  -31.0814 C   0  0  0  0  0  0  0  0  0  0  0  0
   13.4562   -0.0230  -32.0830 C   0  0  2  0  0  0  0  0  0  0  0  0
   12.8605    0.0607  -33.4730 C   0  0  0  0  0  0  0  0  0  0  0  0
   14.7449   -0.7454  -32.1669 C   0  0  2  0  0  0  0  0  0  0  0  0
   14.7517   -2.1072  -32.5714 N   0  0  0  0  0  0  0  0  0  0  0  0
   15.5758   -2.7688  -33.4865 C   0  0  0  0  0  0  0  0  0  0  0  0
   16.4705   -2.0621  -34.0830 O   0  0  0  0  0  0  0  0  0  0  0  0
   15.4784   -4.1549  -33.7665 C   0  0  2  0  0  0  0  0  0  0  0  0
   16.2579   -4.7427  -34.9169 C   0  0  0  0  0  0  0  0  0  0  0  0
   15.8873   -6.2261  -34.7452 C   0  0  0  0  0  0  0  0  0  0  0  0
   14.7130   -6.2764  -33.7353 C   0  0  0  0  0  0  0  0  0  0  0  0
   14.2465   -4.8699  -33.9408 N   0  0  0  0  0  0  0  0  0  0  0  0
   12.9205   -4.4655  -34.2757 C   0  0  0  0  0  0  0  0  0  0  0  0
   12.8383   -3.1993  -34.5211 O   0  0  0  0  0  0  0  0  0  0  0  0
   11.7909   -5.3816  -34.3466 C   0  0  2  0  0  0  0  0  0  0  0  0
   10.4330   -4.9637  -34.5955 C   0  0  0  0  0  0  0  0  0  0  0  0
    9.6227   -4.1002  -33.7299 C   0  0  0  0  0  0  0  0  0  0  0  0
   10.1259   -2.7284  -33.4192 C   0  0  0  0  0  0  0  0  0  0  0  0
    9.1175   -2.0010  -32.6486 N   0  0  0  0  0  0  0  0  0  0  0  0
    7.8839   -1.5480  -33.2390 C   0  0  0  0  0  0  0  0  0  0  0  0
    6.9951   -0.8452  -32.3805 N   0  0  0  0  0  0  0  0  0  0  0  0
    7.5668   -1.7303  -34.4653 N   0  0  0  0  0  0  0  0  0  0  0  0
   11.8862   -6.4909  -33.3759 N   0  0  0  0  0  0  0  0  0  0  0  0
   12.2886   -6.2034  -32.0087 C   0  0  0  0  0  0  0  0  0  0  0  0
   12.5371   -5.0120  -31.7670 O   0  0  0  0  0  0  0  0  0  0  0  0
   12.3431   -7.3388  -31.0943 C   0  0  1  0  0  0  0  0  0  0  0  0
   12.0339   -8.6271  -31.7275 N   0  0  0  0  0  0  0  0  0  0  0  0
   13.5256   -7.4300  -30.1968 C   0  0  0  0  0  0  0  0  0  0  0  0
   13.6794   -6.2864  -29.2678 C   0  0  0  0  0  0  0  0  0  0  0  0
   14.7681   -6.1147  -28.3957 N   0  0  0  0  0  0  0  0  0  0  0  0
   12.7747   -5.4127  -29.2589 O   0  0  0  0  0  0  0  0  0  0  0  0
   15.4395   -0.7566  -30.8050 C   0  0  0  0  0  0  0  0  0  0  0  0
   15.2288    0.1176  -29.9454 O   0  0  0  0  0  0  0  0  0  0  0  0
   16.3440   -1.7990  -30.5412 N   0  0  0  0  0  0  0  0  0  0  0  0
   17.0608   -1.9520  -29.2426 C   0  0  1  0  0  0  0  0  0  0  0  0
   17.6007   -3.2967  -29.2420 C   0  0  0  0  0  0  0  0  0  0  0  0
   18.4151   -3.8520  -28.1338 C   0  0  0  0  0  0  0  0  0  0  0  0
   17.7821   -3.8447  -26.7730 C   0  0  0  0  0  0  0  0  0  0  0  0
   19.8435   -3.4524  -28.0693 C   0  0  0  0  0  0  0  0  0  0  0  0
   17.8921   -0.7665  -29.0866 C   0  0  0  0  0  0  0  0  0  0  0  0
   17.9437    0.0392  -30.0846 O   0  0  0  0  0  0  0  0  0  0  0  0
   18.6230   -0.4196  -27.9566 N   0  0  0  0  0  0  0  0  0  0  0  0
   19.4319    0.7567  -27.7233 C   0  0  1  0  0  0  0  0  0  0  0  0
   19.3176    1.2486  -26.3296 C   0  0  0  0  0  0  0  0  0  0  0  0
   20.0746    2.3790  -26.1183 O   0  0  0  0  0  0  0  0  0  0  0  0
   20.8098    0.5068  -28.2151 C   0  0  0  0  0  0  0  0  0  0  0  0
   20.9893   -0.5525  -28.8690 O   0  0  0  0  0  0  0  0  0  0  0  0
   21.9218    1.3442  -28.0189 N   0  0  0  0  0  0  0  0  0  0  0  0
   23.2507    1.1486  -28.5084 C   0  0  1  0  0  0  0  0  0  0  0  0
   24.2935    0.8342  -27.5247 C   0  0  0  0  0  0  0  0  0  0  0  0
   24.5289    1.8198  -26.4214 C   0  0  0  0  0  0  0  0  0  0  0  0
   23.3729    2.0228  -25.5038 C   0  0  0  0  0  0  0  0  0  0  0  0
   25.7294    1.3168  -25.6195 C   0  0  0  0  0  0  0  0  0  0  0  0
   23.2259   -0.0102  -29.5278 C   0  0  0  0  0  0  0  0  0  0  0  0
   23.7763   -1.0973  -29.2629 O   0  0  0  0  0  0  0  0  0  0  0  0
   22.5854    0.1687  -30.7482 O   0  0  0  0  0  0  0  0  0  0  0  0
  1  2  1  0
  2  3  1  0
  3  4  1  6
  3  5  1  0
  5  6  1  1
  6  7  1  0
  7  8  2  0
  9  7  1  6
  9 10  1  0
 10 11  1  0
 11 12  1  0
 12 13  1  0
 13 14  1  0
 14 15  2  0
 14 16  1  0
 16 17  1  1
 17 18  1  0
 18 19  1  0
 19 20  1  0
 20 21  1  0
 21 22  1  0
 21 23  2  0
 16 24  1  0
 24 25  1  0
 25 26  2  0
 25 27  1  0
 27 28  1  6
 27 29  1  0
 29 30  1  0
 30 31  1  0
 30 32  2  0
  5 33  1  0
 33 34  2  0
 33 35  1  0
 35 36  1  0
 36 37  1  6
 37 38  1  0
 38 39  1  0
 38 40  1  0
 36 41  1  0
 41 42  2  0
 41 43  1  0
 43 44  1  0
 44 45  1  1
 45 46  1  0
 44 47  1  0
 47 48  2  0
 47 49  1  0
 49 50  1  0
 50 51  1  1
 51 52  1  0
 52 53  1  0
 52 54  1  0
 50 55  1  0
 55 56  2  0
 55 57  1  0
 13  9  1  0
M  CHG  3  23   1  28   1  57  -1
M  END
>  <shape_align_shape_tanimoto>  (2) 
0.43283966489574038

>  <shape_align_color_tanimoto>  (2) 
0.071291180484693351

>  <metric>  (2) 
color

>  <metric_score>  (2) 
0.071

>  <template_pid>  (2) 
1U9L

>  <template_shape_score>  (2) 
0.433

>  <template_color_score>  (2) 
0.071

>  <template_combo_score>  (2) 
0.252

$$$$
1U9L_combo_pose
     RDKit          3D

 57 57  0  0  0  0  0  0  0  0999 V2000
   13.0335   -5.0934  -35.6048 C   0  0  0  0  0  0  0  0  0  0  0  0
   13.8639   -5.2972  -34.3760 C   0  0  0  0  0  0  0  0  0  0  0  0
   14.3203   -3.9385  -33.8723 C   0  0  2  0  0  0  0  0  0  0  0  0
   15.1444   -3.3435  -34.9876 C   0  0  0  0  0  0  0  0  0  0  0  0
   15.1894   -4.0413  -32.6304 C   0  0  2  0  0  0  0  0  0  0  0  0
   14.5238   -4.6194  -31.4957 N   0  0  0  0  0  0  0  0  0  0  0  0
   13.1480   -4.7597  -31.2868 C   0  0  0  0  0  0  0  0  0  0  0  0
   12.2585   -4.3510  -32.1243 O   0  0  0  0  0  0  0  0  0  0  0  0
   12.5394   -5.3997  -30.0711 C   0  0  2  0  0  0  0  0  0  0  0  0
   11.8012   -4.3543  -29.2724 C   0  0  0  0  0  0  0  0  0  0  0  0
   12.9949   -3.5840  -28.7002 C   0  0  0  0  0  0  0  0  0  0  0  0
   14.0077   -4.6432  -28.3328 C   0  0  0  0  0  0  0  0  0  0  0  0
   13.5716   -5.7960  -29.0905 N   0  0  0  0  0  0  0  0  0  0  0  0
   13.9767   -7.1533  -29.0310 C   0  0  0  0  0  0  0  0  0  0  0  0
   13.3944   -8.0627  -29.7371 O   0  0  0  0  0  0  0  0  0  0  0  0
   15.0896   -7.7092  -28.1773 C   0  0  2  0  0  0  0  0  0  0  0  0
   14.4581   -8.6093  -27.1780 C   0  0  0  0  0  0  0  0  0  0  0  0
   15.2952   -9.3223  -26.1899 C   0  0  0  0  0  0  0  0  0  0  0  0
   16.0925   -8.5078  -25.2393 C   0  0  0  0  0  0  0  0  0  0  0  0
   16.8521   -9.2662  -24.2562 N   0  0  0  0  0  0  0  0  0  0  0  0
   16.2591  -10.0006  -23.1996 C   0  0  0  0  0  0  0  0  0  0  0  0
   17.1753  -10.6942  -22.3248 N   0  0  0  0  0  0  0  0  0  0  0  0
   15.0008  -10.0810  -22.9795 N   0  0  0  0  0  0  0  0  0  0  0  0
   15.9899   -6.7149  -27.7032 N   0  0  0  0  0  0  0  0  0  0  0  0
   17.2799   -6.6453  -28.3753 C   0  0  0  0  0  0  0  0  0  0  0  0
   17.5518   -7.4513  -29.3238 O   0  0  0  0  0  0  0  0  0  0  0  0
   18.3182   -5.6721  -28.0215 C   0  0  1  0  0  0  0  0  0  0  0  0
   18.0589   -4.9047  -26.8221 N   0  0  0  0  0  0  0  0  0  0  0  0
   19.7106   -6.1664  -28.1623 C   0  0  0  0  0  0  0  0  0  0  0  0
   20.0658   -7.3337  -27.3477 C   0  0  0  0  0  0  0  0  0  0  0  0
   21.4207   -7.8052  -27.4560 N   0  0  0  0  0  0  0  0  0  0  0  0
   19.3264   -7.9581  -26.5751 O   0  0  0  0  0  0  0  0  0  0  0  0
   15.8894   -2.7881  -32.4124 C   0  0  0  0  0  0  0  0  0  0  0  0
   16.5063   -2.1153  -33.2958 O   0  0  0  0  0  0  0  0  0  0  0  0
   15.9239   -2.1986  -31.1002 N   0  0  0  0  0  0  0  0  0  0  0  0
   16.5948   -0.9360  -30.8359 C   0  0  1  0  0  0  0  0  0  0  0  0
   15.4838    0.0019  -30.3491 C   0  0  0  0  0  0  0  0  0  0  0  0
   14.4059    0.1833  -31.3749 C   0  0  0  0  0  0  0  0  0  0  0  0
   13.3338    1.1250  -30.8064 C   0  0  0  0  0  0  0  0  0  0  0  0
   14.9041    0.8999  -32.6321 C   0  0  0  0  0  0  0  0  0  0  0  0
   17.6118   -1.1057  -29.7664 C   0  0  0  0  0  0  0  0  0  0  0  0
   17.7665   -2.2419  -29.2947 O   0  0  0  0  0  0  0  0  0  0  0  0
   18.4082   -0.0532  -29.2583 N   0  0  0  0  0  0  0  0  0  0  0  0
   19.3727   -0.3419  -28.2138 C   0  0  1  0  0  0  0  0  0  0  0  0
   20.7547    0.1400  -28.5886 C   0  0  0  0  0  0  0  0  0  0  0  0
   21.2086   -0.4738  -29.7605 O   0  0  0  0  0  0  0  0  0  0  0  0
   18.9728    0.4021  -26.9682 C   0  0  0  0  0  0  0  0  0  0  0  0
   17.9751    1.1494  -26.9153 O   0  0  0  0  0  0  0  0  0  0  0  0
   19.8377    0.1812  -25.8365 N   0  0  0  0  0  0  0  0  0  0  0  0
   19.6391    0.7885  -24.5562 C   0  0  1  0  0  0  0  0  0  0  0  0
   19.5281   -0.2419  -23.4884 C   0  0  0  0  0  0  0  0  0  0  0  0
   18.4097   -1.2175  -23.6250 C   0  0  0  0  0  0  0  0  0  0  0  0
   17.0571   -0.5067  -23.6352 C   0  0  0  0  0  0  0  0  0  0  0  0
   18.5620   -2.2192  -24.7162 C   0  0  0  0  0  0  0  0  0  0  0  0
   20.8354    1.6386  -24.1969 C   0  0  0  0  0  0  0  0  0  0  0  0
   21.9145    1.5598  -24.8442 O   0  0  0  0  0  0  0  0  0  0  0  0
   20.8023    2.5365  -23.1478 O   0  0  0  0  0  0  0  0  0  0  0  0
  1  2  1  0
  2  3  1  0
  3  4  1  6
  3  5  1  0
  5  6  1  1
  6  7  1  0
  7  8  2  0
  9  7  1  6
  9 10  1  0
 10 11  1  0
 11 12  1  0
 12 13  1  0
 13 14  1  0
 14 15  2  0
 14 16  1  0
 16 17  1  1
 17 18  1  0
 18 19  1  0
 19 20  1  0
 20 21  1  0
 21 22  1  0
 21 23  2  0
 16 24  1  0
 24 25  1  0
 25 26  2  0
 25 27  1  0
 27 28  1  1
 27 29  1  0
 29 30  1  0
 30 31  1  0
 30 32  2  0
  5 33  1  0
 33 34  2  0
 33 35  1  0
 35 36  1  0
 36 37  1  1
 37 38  1  0
 38 39  1  0
 38 40  1  0
 36 41  1  0
 41 42  2  0
 41 43  1  0
 43 44  1  0
 44 45  1  6
 45 46  1  0
 44 47  1  0
 47 48  2  0
 47 49  1  0
 49 50  1  0
 50 51  1  1
 51 52  1  0
 52 53  1  0
 52 54  1  0
 50 55  1  0
 55 56  2  0
 55 57  1  0
 13  9  1  0
M  CHG  3  23   1  28   1  57  -1
M  END
>  <shape_align_shape_tanimoto>  (3) 
0.46470832362280912

>  <shape_align_color_tanimoto>  (3) 
0.064208906744663341

>  <metric>  (3) 
combo

>  <metric_score>  (3) 
0.264

>  <template_pid>  (3) 
1U9L

>  <template_shape_score>  (3) 
0.465

>  <template_color_score>  (3) 
0.064

>  <template_combo_score>  (3) 
0.264

$$$$
