1NJE_shape_pose
     RDKit          3D

 31 35  0  0  0  0  0  0  0  0999 V2000
  -11.5071   52.0421   54.2777 O   0  0  0  0  0  0  0  0  0  0  0  0
  -11.7428   52.3074   53.0378 C   0  0  0  0  0  0  0  0  0  0  0  0
  -13.0867   52.5377   52.7166 O   0  0  0  0  0  0  0  0  0  0  0  0
  -13.2719   53.4890   51.6835 C   0  0  0  0  0  0  0  0  0  0  0  0
  -12.7887   54.7540   52.3320 C   0  0  0  0  0  0  0  0  0  0  0  0
  -12.1326   55.7555   51.6958 C   0  0  0  0  0  0  0  0  0  0  0  0
  -11.6190   56.8127   52.5005 C   0  0  0  0  0  0  0  0  0  0  0  0
  -11.7305   56.7049   53.8386 C   0  0  0  0  0  0  0  0  0  0  0  0
  -11.1139   57.6481   54.7097 O   0  0  0  0  0  0  0  0  0  0  0  0
  -12.3856   55.7161   54.5224 C   0  0  0  0  0  0  0  0  0  0  0  0
  -12.9650   54.7211   53.7411 C   0  0  0  0  0  0  0  0  0  0  0  0
  -14.6085   53.7234   51.1248 C   0  0  0  0  0  0  0  0  0  0  0  0
  -15.3087   54.8460   51.4550 C   0  0  0  0  0  0  0  0  0  0  0  0
  -16.4868   55.0704   50.9248 C   0  0  0  0  0  0  0  0  0  0  0  0
  -17.0623   54.1874   49.9020 C   0  0  0  0  0  0  0  0  0  0  0  0
  -18.1862   54.4487   49.3254 O   0  0  0  0  0  0  0  0  0  0  0  0
  -16.2731   53.0394   49.5894 C   0  0  0  0  0  0  0  0  0  0  0  0
  -15.0799   52.7860   50.1868 C   0  0  0  0  0  0  0  0  0  0  0  0
  -12.4105   52.9811   50.5337 C   0  0  0  0  0  0  0  0  0  0  0  0
  -12.7656   52.8263   49.2526 C   0  0  0  0  0  0  0  0  0  0  0  0
  -12.0172   52.3895   48.2505 C   0  0  0  0  0  0  0  0  0  0  0  0
  -10.6322   52.0549   48.4906 C   0  0  0  0  0  0  0  0  0  0  0  0
   -9.9454   51.0476   47.7784 N   0  0  0  0  0  0  0  0  0  0  0  0
   -8.9485   51.0326   47.1028 O   0  0  0  0  0  0  0  0  0  0  0  0
  -10.6415   49.7750   47.7375 O   0  0  0  0  0  0  0  0  0  0  0  0
  -10.1727   52.2436   49.8453 C   0  0  0  0  0  0  0  0  0  0  0  0
   -8.8681   51.8614   50.1017 C   0  0  0  0  0  0  0  0  0  0  0  0
   -8.4318   51.7520   51.4367 C   0  0  0  0  0  0  0  0  0  0  0  0
   -9.4034   52.0043   52.3924 C   0  0  0  0  0  0  0  0  0  0  0  0
  -10.6573   52.3768   52.0916 C   0  0  0  0  0  0  0  0  0  0  0  0
  -11.0790   52.6651   50.7800 C   0  0  0  0  0  0  0  0  0  0  0  0
  1  2  2  0
  2  3  1  0
  3  4  1  0
  4  5  1  0
  5  6  2  0
  6  7  1  0
  7  8  2  0
  8  9  1  0
  8 10  1  0
 10 11  2  0
  4 12  1  0
 12 13  2  0
 13 14  1  0
 14 15  2  0
 15 16  1  0
 15 17  1  0
 17 18  2  0
  4 19  1  0
 19 20  1  0
 20 21  2  0
 21 22  1  0
 22 23  1  0
 23 24  2  0
 23 25  1  0
 22 26  2  0
 26 27  1  0
 27 28  2  0
 28 29  1  0
 29 30  2  0
 30 31  1  0
 30  2  1  0
 11  5  1  0
 18 12  1  0
 31 19  2  0
 31 26  1  0
M  CHG  2  23   1  25  -1
M  END
>  <shape_align_shape_tanimoto>  (1) 
0.5799632000869952

>  <shape_align_color_tanimoto>  (1) 
0.046360296571903659

>  <metric>  (1) 
shape

>  <metric_score>  (1) 
0.580

>  <template_pid>  (1) 
1NJE

>  <template_shape_score>  (1) 
0.580

>  <template_color_score>  (1) 
0.046

>  <template_combo_score>  (1) 
0.313

$$$$
1NJE_color_pose
     RDKit          3D

 31 35  0  0  0  0  0  0  0  0999 V2000
   -9.9795   51.9376   49.7527 O   0  0  0  0  0  0  0  0  0  0  0  0
  -10.9785   52.5347   50.2498 C   0  0  0  0  0  0  0  0  0  0  0  0
  -10.7734   53.2836   51.3788 O   0  0  0  0  0  0  0  0  0  0  0  0
  -11.7427   54.0350   52.0864 C   0  0  0  0  0  0  0  0  0  0  0  0
  -11.6876   53.5090   53.4819 C   0  0  0  0  0  0  0  0  0  0  0  0
  -12.0491   54.2469   54.5849 C   0  0  0  0  0  0  0  0  0  0  0  0
  -12.0058   53.7455   55.8768 C   0  0  0  0  0  0  0  0  0  0  0  0
  -11.5836   52.4508   56.0842 C   0  0  0  0  0  0  0  0  0  0  0  0
  -11.5092   51.8678   57.3453 O   0  0  0  0  0  0  0  0  0  0  0  0
  -11.2128   51.6788   55.0086 C   0  0  0  0  0  0  0  0  0  0  0  0
  -11.2656   52.2019   53.7372 C   0  0  0  0  0  0  0  0  0  0  0  0
  -11.2174   55.4452   52.0767 C   0  0  0  0  0  0  0  0  0  0  0  0
   -9.9678   55.6313   52.6210 C   0  0  0  0  0  0  0  0  0  0  0  0
   -9.4205   56.9140   52.6371 C   0  0  0  0  0  0  0  0  0  0  0  0
  -10.1255   57.9789   52.1134 C   0  0  0  0  0  0  0  0  0  0  0  0
   -9.6139   59.2836   52.1087 O   0  0  0  0  0  0  0  0  0  0  0  0
  -11.3807   57.7957   51.5657 C   0  0  0  0  0  0  0  0  0  0  0  0
  -11.9023   56.5039   51.5632 C   0  0  0  0  0  0  0  0  0  0  0  0
  -13.0504   53.8911   51.4432 C   0  0  0  0  0  0  0  0  0  0  0  0
  -14.1604   54.5473   51.9924 C   0  0  0  0  0  0  0  0  0  0  0  0
  -15.4171   54.4511   51.4304 C   0  0  0  0  0  0  0  0  0  0  0  0
  -15.6586   53.6966   50.2842 C   0  0  0  0  0  0  0  0  0  0  0  0
  -16.9784   53.6752   49.8028 N   0  0  0  0  0  0  0  0  0  0  0  0
  -17.5678   52.7583   49.2444 O   0  0  0  0  0  0  0  0  0  0  0  0
  -17.7229   54.8452   50.0035 O   0  0  0  0  0  0  0  0  0  0  0  0
  -14.5792   53.0528   49.7417 C   0  0  0  0  0  0  0  0  0  0  0  0
  -14.7705   52.2940   48.6066 C   0  0  0  0  0  0  0  0  0  0  0  0
  -13.7327   51.6097   47.9973 C   0  0  0  0  0  0  0  0  0  0  0  0
  -12.4750   51.6958   48.5499 C   0  0  0  0  0  0  0  0  0  0  0  0
  -12.3112   52.4493   49.6671 C   0  0  0  0  0  0  0  0  0  0  0  0
  -13.3099   53.1503   50.3102 C   0  0  0  0  0  0  0  0  0  0  0  0
  1  2  2  0
  2  3  1  0
  3  4  1  0
  4  5  1  0
  5  6  2  0
  6  7  1  0
  7  8  2  0
  8  9  1  0
  8 10  1  0
 10 11  2  0
  4 12  1  0
 12 13  2  0
 13 14  1  0
 14 15  2  0
 15 16  1  0
 15 17  1  0
 17 18  2  0
  4 19  1  0
 19 20  1  0
 20 21  2  0
 21 22  1  0
 22 23  1  0
 23 24  2  0
 23 25  1  0
 22 26  2  0
 26 27  1  0
 27 28  2  0
 28 29  1  0
 29 30  2  0
 30 31  1  0
 30  2  1  0
 11  5  1  0
 18 12  1  0
 31 19  2  0
 31 26  1  0
M  CHG  2  23   1  25  -1
M  END
>  <shape_align_shape_tanimoto>  (2) 
0.45343746125527457

>  <shape_align_color_tanimoto>  (2) 
0.070780511489886414

>  <metric>  (2) 
color

>  <metric_score>  (2) 
0.071

>  <template_pid>  (2) 
1NJE

>  <template_shape_score>  (2) 
0.453

>  <template_color_score>  (2) 
0.071

>  <template_combo_score>  (2) 
0.262

$$$$
1NJE_combo_pose
     RDKit          3D

 31 35  0  0  0  0  0  0  0  0999 V2000
  -11.5071   52.0421   54.2777 O   0  0  0  0  0  0  0  0  0  0  0  0
  -11.7428   52.3074   53.0378 C   0  0  0  0  0  0  0  0  0  0  0  0
  -13.0867   52.5377   52.7166 O   0  0  0  0  0  0  0  0  0  0  0  0
  -13.2719   53.4890   51.6835 C   0  0  0  0  0  0  0  0  0  0  0  0
  -12.7887   54.7540   52.3320 C   0  0  0  0  0  0  0  0  0  0  0  0
  -12.1326   55.7555   51.6958 C   0  0  0  0  0  0  0  0  0  0  0  0
  -11.6190   56.8127   52.5005 C   0  0  0  0  0  0  0  0  0  0  0  0
  -11.7305   56.7049   53.8386 C   0  0  0  0  0  0  0  0  0  0  0  0
  -11.1139   57.6481   54.7097 O   0  0  0  0  0  0  0  0  0  0  0  0
  -12.3856   55.7161   54.5224 C   0  0  0  0  0  0  0  0  0  0  0  0
  -12.9650   54.7211   53.7411 C   0  0  0  0  0  0  0  0  0  0  0  0
  -14.6085   53.7234   51.1248 C   0  0  0  0  0  0  0  0  0  0  0  0
  -15.3087   54.8460   51.4550 C   0  0  0  0  0  0  0  0  0  0  0  0
  -16.4868   55.0704   50.9248 C   0  0  0  0  0  0  0  0  0  0  0  0
  -17.0623   54.1874   49.9020 C   0  0  0  0  0  0  0  0  0  0  0  0
  -18.1862   54.4487   49.3254 O   0  0  0  0  0  0  0  0  0  0  0  0
  -16.2731   53.0394   49.5894 C   0  0  0  0  0  0  0  0  0  0  0  0
  -15.0799   52.7860   50.1868 C   0  0  0  0  0  0  0  0  0  0  0  0
  -12.4105   52.9811   50.5337 C   0  0  0  0  0  0  0  0  0  0  0  0
  -12.7656   52.8263   49.2526 C   0  0  0  0  0  0  0  0  0  0  0  0
  -12.0172   52.3895   48.2505 C   0  0  0  0  0  0  0  0  0  0  0  0
  -10.6322   52.0549   48.4906 C   0  0  0  0  0  0  0  0  0  0  0  0
   -9.9454   51.0476   47.7784 N   0  0  0  0  0  0  0  0  0  0  0  0
   -8.9485   51.0326   47.1028 O   0  0  0  0  0  0  0  0  0  0  0  0
  -10.6415   49.7750   47.7375 O   0  0  0  0  0  0  0  0  0  0  0  0
  -10.1727   52.2436   49.8453 C   0  0  0  0  0  0  0  0  0  0  0  0
   -8.8681   51.8614   50.1017 C   0  0  0  0  0  0  0  0  0  0  0  0
   -8.4318   51.7520   51.4367 C   0  0  0  0  0  0  0  0  0  0  0  0
   -9.4034   52.0043   52.3924 C   0  0  0  0  0  0  0  0  0  0  0  0
  -10.6573   52.3768   52.0916 C   0  0  0  0  0  0  0  0  0  0  0  0
  -11.0790   52.6651   50.7800 C   0  0  0  0  0  0  0  0  0  0  0  0
  1  2  2  0
  2  3  1  0
  3  4  1  0
  4  5  1  0
  5  6  2  0
  6  7  1  0
  7  8  2  0
  8  9  1  0
  8 10  1  0
 10 11  2  0
  4 12  1  0
 12 13  2  0
 13 14  1  0
 14 15  2  0
 15 16  1  0
 15 17  1  0
 17 18  2  0
  4 19  1  0
 19 20  1  0
 20 21  2  0
 21 22  1  0
 22 23  1  0
 23 24  2  0
 23 25  1  0
 22 26  2  0
 26 27  1  0
 27 28  2  0
 28 29  1  0
 29 30  2  0
 30 31  1  0
 30  2  1  0
 11  5  1  0
 18 12  1  0
 31 19  2  0
 31 26  1  0
M  CHG  2  23   1  25  -1
M  END
>  <shape_align_shape_tanimoto>  (3) 
0.5799632000869952

>  <shape_align_color_tanimoto>  (3) 
0.046360296571903659

>  <metric>  (3) 
combo

>  <metric_score>  (3) 
0.313

>  <template_pid>  (3) 
1NJE

>  <template_shape_score>  (3) 
0.580

>  <template_color_score>  (3) 
0.046

>  <template_combo_score>  (3) 
0.313

$$$$
