2G78_shape_pose
     RDKit          3D

 22 22  0  0  0  0  0  0  0  0999 V2000
    2.7723   10.7210   -5.2562 C   0  0  0  0  0  0  0  0  0  0  0  0
    1.6280   10.3110   -4.3732 C   0  0  0  0  0  0  0  0  0  0  0  0
    0.6281    9.5710   -4.9013 C   0  0  0  0  0  0  0  0  0  0  0  0
    0.7456    9.2142   -6.3481 C   0  0  0  0  0  0  0  0  0  0  0  0
   -0.3598    9.7654   -7.1917 C   0  0  0  0  0  0  0  0  0  0  0  0
   -0.1499    9.3565   -8.6197 C   0  0  0  0  0  0  0  0  0  0  0  0
   -1.1344    9.7974   -9.6582 C   0  0  0  0  0  0  0  0  0  0  0  0
    0.8593    8.6250   -9.0216 C   0  0  0  0  0  0  0  0  0  0  0  0
    1.0004    8.2613  -10.4466 C   0  0  0  0  0  0  0  0  0  0  0  0
    2.0100    7.5254  -10.8722 C   0  0  0  0  0  0  0  0  0  0  0  0
    2.2121    7.1300  -12.2567 C   0  0  0  0  0  0  0  0  0  0  0  0
    1.3112    7.5041  -13.3694 C   0  0  0  0  0  0  0  0  0  0  0  0
    3.2664    6.3887  -12.5555 C   0  0  0  0  0  0  0  0  0  0  0  0
    3.5876    5.9249  -13.8920 C   0  0  0  0  0  0  0  0  0  0  0  0
    2.9000    6.1750  -14.9137 O   0  0  0  0  0  0  0  0  0  0  0  0
    4.7251    5.1499  -14.0918 O   0  0  0  0  0  0  0  0  0  0  0  0
   -0.5370    9.1248   -4.0786 C   0  0  0  0  0  0  0  0  0  0  0  0
   -0.7526    7.6579   -4.4820 C   0  0  0  0  0  0  0  0  0  0  0  0
   -1.8076    9.8792   -4.4091 C   0  0  0  0  0  0  0  0  0  0  0  0
   -0.2956    9.1346   -2.6122 C   0  0  0  0  0  0  0  0  0  0  0  0
    1.0947    9.5163   -2.1804 C   0  0  0  0  0  0  0  0  0  0  0  0
    1.6113   10.7220   -2.9317 C   0  0  0  0  0  0  0  0  0  0  0  0
  1  2  1  0
  2  3  2  0
  3  4  1  0
  4  5  1  0
  5  6  1  0
  6  7  1  0
  6  8  2  0
  8  9  1  0
  9 10  2  0
 10 11  1  0
 11 12  1  0
 11 13  2  0
 13 14  1  0
 14 15  2  0
 14 16  1  0
  3 17  1  0
 17 18  1  0
 17 19  1  0
 17 20  1  0
 20 21  1  0
 21 22  1  0
 22  2  1  0
M  CHG  1  16  -1
M  END
>  <shape_align_shape_tanimoto>  (1) 
0.55802168968469035

>  <shape_align_color_tanimoto>  (1) 
0.063866967381967038

>  <metric>  (1) 
shape

>  <metric_score>  (1) 
0.558

>  <template_pid>  (1) 
2G78

>  <template_shape_score>  (1) 
0.558

>  <template_color_score>  (1) 
0.064

>  <template_combo_score>  (1) 
0.311

$$$$
2G78_color_pose
     RDKit          3D

 22 22  0  0  0  0  0  0  0  0999 V2000
   -1.9667   11.2830   -5.1096 C   0  0  0  0  0  0  0  0  0  0  0  0
   -1.0265   10.1077   -5.1532 C   0  0  0  0  0  0  0  0  0  0  0  0
   -0.2598    9.8954   -6.2709 C   0  0  0  0  0  0  0  0  0  0  0  0
   -0.5004   10.9199   -7.3018 C   0  0  0  0  0  0  0  0  0  0  0  0
   -1.2329   10.6468   -8.5288 C   0  0  0  0  0  0  0  0  0  0  0  0
   -0.7829    9.8615   -9.6537 C   0  0  0  0  0  0  0  0  0  0  0  0
   -1.8047    9.6360  -10.7612 C   0  0  0  0  0  0  0  0  0  0  0  0
    0.3703    9.2969   -9.8932 C   0  0  0  0  0  0  0  0  0  0  0  0
    0.6708    8.5194  -11.1005 C   0  0  0  0  0  0  0  0  0  0  0  0
    1.8275    7.9653  -11.3170 C   0  0  0  0  0  0  0  0  0  0  0  0
    2.1854    7.1837  -12.4929 C   0  0  0  0  0  0  0  0  0  0  0  0
    1.2551    6.9149  -13.6159 C   0  0  0  0  0  0  0  0  0  0  0  0
    3.4047    6.6704  -12.5943 C   0  0  0  0  0  0  0  0  0  0  0  0
    3.8580    5.8778  -13.7254 C   0  0  0  0  0  0  0  0  0  0  0  0
    3.1777    5.5850  -14.7197 O   0  0  0  0  0  0  0  0  0  0  0  0
    5.1764    5.3950  -13.7057 O   0  0  0  0  0  0  0  0  0  0  0  0
    0.6645    8.7727   -6.2535 C   0  0  0  0  0  0  0  0  0  0  0  0
    0.2855    7.6115   -7.1565 C   0  0  0  0  0  0  0  0  0  0  0  0
    2.0903    9.2021   -6.6468 C   0  0  0  0  0  0  0  0  0  0  0  0
    0.8725    8.1173   -4.8930 C   0  0  0  0  0  0  0  0  0  0  0  0
    0.5183    8.9840   -3.7301 C   0  0  0  0  0  0  0  0  0  0  0  0
   -0.9863    9.2537   -3.9526 C   0  0  0  0  0  0  0  0  0  0  0  0
  1  2  1  0
  2  3  2  0
  3  4  1  0
  4  5  1  0
  5  6  1  0
  6  7  1  0
  6  8  2  0
  8  9  1  0
  9 10  2  0
 10 11  1  0
 11 12  1  0
 11 13  2  0
 13 14  1  0
 14 15  2  0
 14 16  1  0
  3 17  1  0
 17 18  1  0
 17 19  1  0
 17 20  1  0
 20 21  1  0
 21 22  1  0
 22  2  1  0
M  CHG  1  16  -1
M  END
>  <shape_align_shape_tanimoto>  (2) 
0.44087965976376009

>  <shape_align_color_tanimoto>  (2) 
0.083485928707224016

>  <metric>  (2) 
color

>  <metric_score>  (2) 
0.083

>  <template_pid>  (2) 
2G78

>  <template_shape_score>  (2) 
0.441

>  <template_color_score>  (2) 
0.083

>  <template_combo_score>  (2) 
0.262

$$$$
2G78_combo_pose
     RDKit          3D

 22 22  0  0  0  0  0  0  0  0999 V2000
    2.7723   10.7210   -5.2562 C   0  0  0  0  0  0  0  0  0  0  0  0
    1.6280   10.3110   -4.3732 C   0  0  0  0  0  0  0  0  0  0  0  0
    0.6281    9.5710   -4.9013 C   0  0  0  0  0  0  0  0  0  0  0  0
    0.7456    9.2142   -6.3481 C   0  0  0  0  0  0  0  0  0  0  0  0
   -0.3598    9.7654   -7.1917 C   0  0  0  0  0  0  0  0  0  0  0  0
   -0.1499    9.3565   -8.6197 C   0  0  0  0  0  0  0  0  0  0  0  0
   -1.1344    9.7974   -9.6582 C   0  0  0  0  0  0  0  0  0  0  0  0
    0.8593    8.6250   -9.0216 C   0  0  0  0  0  0  0  0  0  0  0  0
    1.0004    8.2613  -10.4466 C   0  0  0  0  0  0  0  0  0  0  0  0
    2.0100    7.5254  -10.8722 C   0  0  0  0  0  0  0  0  0  0  0  0
    2.2121    7.1300  -12.2567 C   0  0  0  0  0  0  0  0  0  0  0  0
    1.3112    7.5041  -13.3694 C   0  0  0  0  0  0  0  0  0  0  0  0
    3.2664    6.3887  -12.5555 C   0  0  0  0  0  0  0  0  0  0  0  0
    3.5876    5.9249  -13.8920 C   0  0  0  0  0  0  0  0  0  0  0  0
    2.9000    6.1750  -14.9137 O   0  0  0  0  0  0  0  0  0  0  0  0
    4.7251    5.1499  -14.0918 O   0  0  0  0  0  0  0  0  0  0  0  0
   -0.5370    9.1248   -4.0786 C   0  0  0  0  0  0  0  0  0  0  0  0
   -0.7526    7.6579   -4.4820 C   0  0  0  0  0  0  0  0  0  0  0  0
   -1.8076    9.8792   -4.4091 C   0  0  0  0  0  0  0  0  0  0  0  0
   -0.2956    9.1346   -2.6122 C   0  0  0  0  0  0  0  0  0  0  0  0
    1.0947    9.5163   -2.1804 C   0  0  0  0  0  0  0  0  0  0  0  0
    1.6113   10.7220   -2.9317 C   0  0  0  0  0  0  0  0  0  0  0  0
  1  2  1  0
  2  3  2  0
  3  4  1  0
  4  5  1  0
  5  6  1  0
  6  7  1  0
  6  8  2  0
  8  9  1  0
  9 10  2  0
 10 11  1  0
 11 12  1  0
 11 13  2  0
 13 14  1  0
 14 15  2  0
 14 16  1  0
  3 17  1  0
 17 18  1  0
 17 19  1  0
 17 20  1  0
 20 21  1  0
 21 22  1  0
 22  2  1  0
M  CHG  1  16  -1
M  END
>  <shape_align_shape_tanimoto>  (3) 
0.55802168968469035

>  <shape_align_color_tanimoto>  (3) 
0.063866967381967038

>  <metric>  (3) 
combo

>  <metric_score>  (3) 
0.311

>  <template_pid>  (3) 
2G78

>  <template_shape_score>  (3) 
0.558

>  <template_color_score>  (3) 
0.064

>  <template_combo_score>  (3) 
0.311

$$$$
