6G5U_shape_pose
     RDKit          3D

 19 19  0  0  0  0  0  0  0  0999 V2000
    1.6159    4.3197   13.2975 C   0  0  0  0  0  0  0  0  0  0  0  0
    2.8416    4.3007   12.4552 C   0  0  0  0  0  0  0  0  0  0  0  0
    2.6246    4.3585   10.9840 C   0  0  0  0  0  0  0  0  0  0  0  0
    1.8231    3.2430   10.4110 C   0  0  0  0  0  0  0  0  0  0  0  0
    0.4936    3.1061   10.9158 N   0  0  0  0  0  0  0  0  0  0  0  0
   -0.4063    4.1963   10.7485 C   0  0  0  0  0  0  0  0  0  0  0  0
   -0.0497    5.2640   10.1693 O   0  0  0  0  0  0  0  0  0  0  0  0
   -1.7892    4.1613   11.2273 C   0  0  0  0  0  0  0  0  0  0  0  0
   -2.2143    5.0881   12.1642 C   0  0  0  0  0  0  0  0  0  0  0  0
   -3.5306    5.0404   12.6076 C   0  0  0  0  0  0  0  0  0  0  0  0
   -4.1233    6.1936   13.7978 S   0  0  0  0  0  0  0  0  0  0  0  0
   -2.8187    7.2707   14.2223 N   0  0  0  0  0  0  0  0  0  0  0  0
   -5.3062    6.9443   13.3060 O   0  0  0  0  0  0  0  0  0  0  0  0
   -4.4512    5.4123   15.0412 O   0  0  0  0  0  0  0  0  0  0  0  0
   -4.4023    4.0780   12.1172 C   0  0  0  0  0  0  0  0  0  0  0  0
   -6.0625    4.0092   12.6683 Cl  0  0  0  0  0  0  0  0  0  0  0  0
   -3.9960    3.1464   11.1831 C   0  0  0  0  0  0  0  0  0  0  0  0
   -2.6865    3.2028   10.7495 C   0  0  0  0  0  0  0  0  0  0  0  0
   -2.1722    2.0172    9.5602 Cl  0  0  0  0  0  0  0  0  0  0  0  0
  1  2  1  0
  2  3  1  0
  3  4  1  0
  4  5  1  0
  5  6  1  0
  6  7  2  0
  6  8  1  0
  8  9  2  0
  9 10  1  0
 10 11  1  0
 11 12  1  0
 11 13  2  0
 11 14  2  0
 10 15  2  0
 15 16  1  0
 15 17  1  0
 17 18  2  0
 18 19  1  0
 18  8  1  0
M  END
>  <shape_align_shape_tanimoto>  (1) 
0.62462729399468719

>  <shape_align_color_tanimoto>  (1) 
0.025157397049929642

>  <metric>  (1) 
shape

>  <metric_score>  (1) 
0.625

>  <template_pid>  (1) 
6G5U

>  <template_shape_score>  (1) 
0.625

>  <template_color_score>  (1) 
0.025

>  <template_combo_score>  (1) 
0.325

$$$$
6G5U_color_pose
     RDKit          3D

 19 19  0  0  0  0  0  0  0  0999 V2000
    2.5644    4.9846    7.1941 C   0  0  0  0  0  0  0  0  0  0  0  0
    3.9591    4.9869    7.7064 C   0  0  0  0  0  0  0  0  0  0  0  0
    4.3143    4.0025    8.7525 C   0  0  0  0  0  0  0  0  0  0  0  0
    3.5707    4.0866   10.0494 C   0  0  0  0  0  0  0  0  0  0  0  0
    2.1661    3.8725    9.9712 N   0  0  0  0  0  0  0  0  0  0  0  0
    1.4235    3.9671   11.2115 C   0  0  0  0  0  0  0  0  0  0  0  0
    2.0399    4.2302   12.2892 O   0  0  0  0  0  0  0  0  0  0  0  0
   -0.0210    3.7615   11.2213 C   0  0  0  0  0  0  0  0  0  0  0  0
   -0.9027    4.7456   11.6319 C   0  0  0  0  0  0  0  0  0  0  0  0
   -2.2568    4.4880   11.6186 C   0  0  0  0  0  0  0  0  0  0  0  0
   -3.4480    5.6516   12.1136 S   0  0  0  0  0  0  0  0  0  0  0  0
   -2.7690    7.1413   12.6160 N   0  0  0  0  0  0  0  0  0  0  0  0
   -4.2291    5.0395   13.2492 O   0  0  0  0  0  0  0  0  0  0  0  0
   -4.4214    5.8912   10.9833 O   0  0  0  0  0  0  0  0  0  0  0  0
   -2.7097    3.2479   11.1943 C   0  0  0  0  0  0  0  0  0  0  0  0
   -4.4218    2.8616   11.1555 Cl  0  0  0  0  0  0  0  0  0  0  0  0
   -1.8274    2.2631   10.7834 C   0  0  0  0  0  0  0  0  0  0  0  0
   -0.4697    2.5164   10.7949 C   0  0  0  0  0  0  0  0  0  0  0  0
    0.6502    1.2685   10.2743 Cl  0  0  0  0  0  0  0  0  0  0  0  0
  1  2  1  0
  2  3  1  0
  3  4  1  0
  4  5  1  0
  5  6  1  0
  6  7  2  0
  6  8  1  0
  8  9  2  0
  9 10  1  0
 10 11  1  0
 11 12  1  0
 11 13  2  0
 11 14  2  0
 10 15  2  0
 15 16  1  0
 15 17  1  0
 17 18  2  0
 18 19  1  0
 18  8  1  0
M  END
>  <shape_align_shape_tanimoto>  (2) 
0.59214946315015804

>  <shape_align_color_tanimoto>  (2) 
0.12601241202355964

>  <metric>  (2) 
color

>  <metric_score>  (2) 
0.126

>  <template_pid>  (2) 
6G5U

>  <template_shape_score>  (2) 
0.592

>  <template_color_score>  (2) 
0.126

>  <template_combo_score>  (2) 
0.359

$$$$
6G5U_combo_pose
     RDKit          3D

 19 19  0  0  0  0  0  0  0  0999 V2000
    2.5644    4.9846    7.1941 C   0  0  0  0  0  0  0  0  0  0  0  0
    3.9591    4.9869    7.7064 C   0  0  0  0  0  0  0  0  0  0  0  0
    4.3143    4.0025    8.7525 C   0  0  0  0  0  0  0  0  0  0  0  0
    3.5707    4.0866   10.0494 C   0  0  0  0  0  0  0  0  0  0  0  0
    2.1661    3.8725    9.9712 N   0  0  0  0  0  0  0  0  0  0  0  0
    1.4235    3.9671   11.2115 C   0  0  0  0  0  0  0  0  0  0  0  0
    2.0399    4.2302   12.2892 O   0  0  0  0  0  0  0  0  0  0  0  0
   -0.0210    3.7615   11.2213 C   0  0  0  0  0  0  0  0  0  0  0  0
   -0.9027    4.7456   11.6319 C   0  0  0  0  0  0  0  0  0  0  0  0
   -2.2568    4.4880   11.6186 C   0  0  0  0  0  0  0  0  0  0  0  0
   -3.4480    5.6516   12.1136 S   0  0  0  0  0  0  0  0  0  0  0  0
   -2.7690    7.1413   12.6160 N   0  0  0  0  0  0  0  0  0  0  0  0
   -4.2291    5.0395   13.2492 O   0  0  0  0  0  0  0  0  0  0  0  0
   -4.4214    5.8912   10.9833 O   0  0  0  0  0  0  0  0  0  0  0  0
   -2.7097    3.2479   11.1943 C   0  0  0  0  0  0  0  0  0  0  0  0
   -4.4218    2.8616   11.1555 Cl  0  0  0  0  0  0  0  0  0  0  0  0
   -1.8274    2.2631   10.7834 C   0  0  0  0  0  0  0  0  0  0  0  0
   -0.4697    2.5164   10.7949 C   0  0  0  0  0  0  0  0  0  0  0  0
    0.6502    1.2685   10.2743 Cl  0  0  0  0  0  0  0  0  0  0  0  0
  1  2  1  0
  2  3  1  0
  3  4  1  0
  4  5  1  0
  5  6  1  0
  6  7  2  0
  6  8  1  0
  8  9  2  0
  9 10  1  0
 10 11  1  0
 11 12  1  0
 11 13  2  0
 11 14  2  0
 10 15  2  0
 15 16  1  0
 15 17  1  0
 17 18  2  0
 18 19  1  0
 18  8  1  0
M  END
>  <shape_align_shape_tanimoto>  (3) 
0.59214946315015804

>  <shape_align_color_tanimoto>  (3) 
0.12601241202355964

>  <metric>  (3) 
combo

>  <metric_score>  (3) 
0.359

>  <template_pid>  (3) 
6G5U

>  <template_shape_score>  (3) 
0.592

>  <template_color_score>  (3) 
0.126

>  <template_combo_score>  (3) 
0.359

$$$$
