5MLI_shape_pose
     RDKit          3D

 11 11  0  0  0  0  0  0  0  0999 V2000
   33.3703    5.4713  104.7246 C   0  0  0  0  0  0  0  0  0  0  0  0
   34.5840    5.1173  104.0154 N   0  0  0  0  0  0  0  0  0  0  0  0
   35.5970    5.9105  103.9175 C   0  0  0  0  0  0  0  0  0  0  0  0
   35.4843    7.2270  104.5659 C   0  0  0  0  0  0  0  0  0  0  0  0
   36.5681    7.9088  104.7925 N   0  0  0  0  0  0  0  0  0  0  0  0
   37.8210    7.4279  104.4398 N   0  0  0  0  0  0  0  0  0  0  0  0
   39.0186    8.2318  104.7147 C   0  0  0  0  0  0  0  0  0  0  0  0
   38.0097    6.1622  103.8088 C   0  0  0  0  0  0  0  0  0  0  0  0
   39.1468    5.6068  103.7827 O   0  0  0  0  0  0  0  0  0  0  0  0
   36.8274    5.5179  103.1833 C   0  0  0  0  0  0  0  0  0  0  0  0
   36.7938    5.9816  101.4761 Cl  0  0  0  0  0  0  0  0  0  0  0  0
  1  2  1  0
  2  3  2  0
  3  4  1  0
  4  5  2  0
  5  6  1  0
  6  7  1  0
  6  8  1  0
  8  9  2  0
  8 10  1  0
 10 11  1  0
 10  3  1  0
M  END
>  <shape_align_shape_tanimoto>  (1) 
0.37084167417023312

>  <shape_align_color_tanimoto>  (1) 
0.0038106826565509795

>  <metric>  (1) 
shape

>  <metric_score>  (1) 
0.371

>  <template_pid>  (1) 
5MLI

>  <template_shape_score>  (1) 
0.371

>  <template_color_score>  (1) 
0.004

>  <template_combo_score>  (1) 
0.187

$$$$
5MLI_color_pose
     RDKit          3D

 11 11  0  0  0  0  0  0  0  0999 V2000
   31.6009    4.1398  104.2468 C   0  0  0  0  0  0  0  0  0  0  0  0
   32.9099    4.0207  103.6107 N   0  0  0  0  0  0  0  0  0  0  0  0
   33.8989    4.7964  103.9466 C   0  0  0  0  0  0  0  0  0  0  0  0
   33.6686    5.7975  104.9831 C   0  0  0  0  0  0  0  0  0  0  0  0
   34.5303    6.7276  105.2373 N   0  0  0  0  0  0  0  0  0  0  0  0
   35.7139    6.8203  104.5395 N   0  0  0  0  0  0  0  0  0  0  0  0
   36.6275    7.9022  104.8936 C   0  0  0  0  0  0  0  0  0  0  0  0
   36.0318    5.8883  103.5064 C   0  0  0  0  0  0  0  0  0  0  0  0
   37.0099    6.0905  102.7603 O   0  0  0  0  0  0  0  0  0  0  0  0
   35.2133    4.6560  103.2884 C   0  0  0  0  0  0  0  0  0  0  0  0
   36.0877    3.1961  103.7599 Cl  0  0  0  0  0  0  0  0  0  0  0  0
  1  2  1  0
  2  3  2  0
  3  4  1  0
  4  5  2  0
  5  6  1  0
  6  7  1  0
  6  8  1  0
  8  9  2  0
  8 10  1  0
 10 11  1  0
 10  3  1  0
M  END
>  <shape_align_shape_tanimoto>  (2) 
0.31574419780373608

>  <shape_align_color_tanimoto>  (2) 
0.064789435009110663

>  <metric>  (2) 
color

>  <metric_score>  (2) 
0.065

>  <template_pid>  (2) 
5MLI

>  <template_shape_score>  (2) 
0.316

>  <template_color_score>  (2) 
0.065

>  <template_combo_score>  (2) 
0.190

$$$$
5MLI_combo_pose
     RDKit          3D

 11 11  0  0  0  0  0  0  0  0999 V2000
   39.4900    5.4745  103.5014 C   0  0  0  0  0  0  0  0  0  0  0  0
   38.4990    6.4388  103.9819 N   0  0  0  0  0  0  0  0  0  0  0  0
   37.2457    6.3065  103.7067 C   0  0  0  0  0  0  0  0  0  0  0  0
   36.7753    5.1786  102.8992 C   0  0  0  0  0  0  0  0  0  0  0  0
   35.5487    4.7807  102.9917 N   0  0  0  0  0  0  0  0  0  0  0  0
   34.6153    5.3920  103.8522 N   0  0  0  0  0  0  0  0  0  0  0  0
   33.2394    4.9253  103.9383 C   0  0  0  0  0  0  0  0  0  0  0  0
   35.0267    6.5001  104.6636 C   0  0  0  0  0  0  0  0  0  0  0  0
   34.4106    6.7935  105.7279 O   0  0  0  0  0  0  0  0  0  0  0  0
   36.2087    7.2746  104.1827 C   0  0  0  0  0  0  0  0  0  0  0  0
   36.8275    8.3918  105.3847 Cl  0  0  0  0  0  0  0  0  0  0  0  0
  1  2  1  0
  2  3  2  0
  3  4  1  0
  4  5  2  0
  5  6  1  0
  6  7  1  0
  6  8  1  0
  8  9  2  0
  8 10  1  0
 10 11  1  0
 10  3  1  0
M  END
>  <shape_align_shape_tanimoto>  (3) 
0.35926833416776849

>  <shape_align_color_tanimoto>  (3) 
0.034888827034840843

>  <metric>  (3) 
combo

>  <metric_score>  (3) 
0.197

>  <template_pid>  (3) 
5MLI

>  <template_shape_score>  (3) 
0.359

>  <template_color_score>  (3) 
0.035

>  <template_combo_score>  (3) 
0.197

$$$$
