4JK6_shape_pose
     RDKit          3D

133136  0  0  0  0  0  0  0  0999 V2000
  -13.6459  -39.5489   14.7585 C   0  0  0  0  0  0  0  0  0  0  0  0
  -15.1143  -39.3245   15.0770 C   0  0  0  0  0  0  0  0  0  0  0  0
  -15.6846  -38.2554   14.0724 C   0  0  1  0  0  0  0  0  0  0  0  0
  -17.0856  -38.0631   14.4167 N   0  0  0  0  0  0  0  0  0  0  0  0
  -18.0247  -39.1256   14.1811 C   0  0  0  0  0  0  0  0  0  0  0  0
  -17.5101  -40.1511   13.7081 O   0  0  0  0  0  0  0  0  0  0  0  0
  -19.4592  -39.0676   14.4710 C   0  0  2  0  0  0  0  0  0  0  0  0
  -20.2780  -40.1611   13.8976 C   0  0  0  0  0  0  0  0  0  0  0  0
  -19.9227  -41.5504   14.3823 C   0  0  0  0  0  0  0  0  0  0  0  0
  -20.0893  -41.7508   15.8744 C   0  0  0  0  0  0  0  0  0  0  0  0
  -19.7196  -43.0822   16.2371 N   0  0  0  0  0  0  0  0  0  0  0  0
  -20.4628  -44.2654   15.8893 C   0  0  0  0  0  0  0  0  0  0  0  0
  -19.9005  -45.5161   16.3359 N   0  0  0  0  0  0  0  0  0  0  0  0
  -21.5357  -44.2526   15.2281 N   0  0  0  0  0  0  0  0  0  0  0  0
  -19.9613  -37.7239   14.3377 N   0  0  0  0  0  0  0  0  0  0  0  0
  -20.0739  -36.8281   15.4788 C   0  0  0  0  0  0  0  0  0  0  0  0
  -19.5861  -37.3054   16.5066 O   0  0  0  0  0  0  0  0  0  0  0  0
  -20.7173  -35.4782   15.3672 C   0  0  0  0  0  0  0  0  0  0  0  0
  -20.6513  -34.8574   16.6919 N   0  0  0  0  0  0  0  0  0  0  0  0
  -21.2898  -35.5194   17.8217 C   0  0  0  0  0  0  0  0  0  0  0  0
  -21.8493  -36.5819   17.4233 O   0  0  0  0  0  0  0  0  0  0  0  0
  -21.2568  -35.0169   19.1878 C   0  0  2  0  0  0  0  0  0  0  0  0
  -21.6137  -36.1262   20.1813 C   0  0  0  0  0  0  0  0  0  0  0  0
  -20.5708  -37.1717   19.9423 C   0  0  0  0  0  0  0  0  0  0  0  0
  -20.4887  -38.3979   20.7652 C   0  0  0  0  0  0  0  0  0  0  0  0
  -20.1523  -38.2431   22.1598 N   0  0  0  0  0  0  0  0  0  0  0  0
  -19.9836  -39.4547   22.9029 C   0  0  0  0  0  0  0  0  0  0  0  0
  -19.6241  -39.4943   24.2651 N   0  0  0  0  0  0  0  0  0  0  0  0
  -20.1413  -40.5693   22.2889 N   0  0  0  0  0  0  0  0  0  0  0  0
  -21.7225  -33.7079   19.4299 N   0  0  0  0  0  0  0  0  0  0  0  0
  -21.6617  -32.9491   20.6387 C   0  0  0  0  0  0  0  0  0  0  0  0
  -21.2289  -33.5550   21.6205 O   0  0  0  0  0  0  0  0  0  0  0  0
  -22.0863  -31.5490   20.7749 C   0  0  2  0  0  0  0  0  0  0  0  0
  -20.8617  -30.6015   20.5976 C   0  0  0  0  0  0  0  0  0  0  0  0
  -19.7277  -30.8186   21.9611 S   0  0  0  0  0  0  0  0  0  0  0  0
  -18.3817  -29.6332   21.9126 C   0  0  0  0  0  0  0  0  0  0  0  0
  -17.4459  -29.7614   23.0804 C   0  0  0  0  0  0  0  0  0  0  0  0
  -17.9375  -30.2077   24.3065 C   0  0  0  0  0  0  0  0  0  0  0  0
  -17.0840  -30.3174   25.3486 C   0  0  0  0  0  0  0  0  0  0  0  0
  -15.7566  -29.9995   25.1955 C   0  0  0  0  0  0  0  0  0  0  0  0
  -15.2160  -29.5465   23.9862 C   0  0  0  0  0  0  0  0  0  0  0  0
  -16.0821  -29.4334   22.9404 C   0  0  0  0  0  0  0  0  0  0  0  0
  -13.7801  -29.2270   24.0073 C   0  0  0  0  0  0  0  0  0  0  0  0
  -12.7104  -30.1503   22.9320 S   0  0  0  0  0  0  0  0  0  0  0  0
  -12.7961  -29.6930   21.2158 C   0  0  0  0  0  0  0  0  0  0  0  0
  -11.8433  -30.4811   20.3853 C   0  0  1  0  0  0  0  0  0  0  0  0
  -10.4907  -30.3968   20.9855 C   0  0  0  0  0  0  0  0  0  0  0  0
   -9.8738  -31.5106   21.0932 O   0  0  0  0  0  0  0  0  0  0  0  0
   -9.8377  -29.2514   21.4406 N   0  0  0  0  0  0  0  0  0  0  0  0
   -8.5061  -29.4417   22.0078 C   0  0  0  0  0  0  0  0  0  0  0  0
   -7.9680  -28.1619   22.4614 C   0  0  0  0  0  0  0  0  0  0  0  0
   -6.6482  -28.1969   23.0575 N   0  0  0  0  0  0  0  0  0  0  0  0
   -8.5312  -27.0490   22.3891 O   0  0  0  0  0  0  0  0  0  0  0  0
  -12.2393  -31.8346   20.0746 N   0  0  0  0  0  0  0  0  0  0  0  0
  -12.4173  -32.2602   18.7090 C   0  0  0  0  0  0  0  0  0  0  0  0
  -12.2207  -31.3768   17.8666 O   0  0  0  0  0  0  0  0  0  0  0  0
  -12.7986  -33.6386   18.3384 C   0  0  2  0  0  0  0  0  0  0  0  0
  -11.6382  -34.5297   18.8136 C   0  0  0  0  0  0  0  0  0  0  0  0
  -12.9520  -33.7829   16.8984 N   0  0  0  0  0  0  0  0  0  0  0  0
  -14.0115  -34.5856   16.3557 C   0  0  0  0  0  0  0  0  0  0  0  0
  -14.7265  -35.1486   17.1892 O   0  0  0  0  0  0  0  0  0  0  0  0
  -14.2150  -34.7187   14.8580 C   0  0  2  0  0  0  0  0  0  0  0  0
  -14.6092  -33.4262   14.2455 C   0  0  0  0  0  0  0  0  0  0  0  0
  -15.7953  -32.9173   14.7988 O   0  0  0  0  0  0  0  0  0  0  0  0
  -15.2413  -35.7754   14.6856 N   0  0  0  0  0  0  0  0  0  0  0  0
  -14.8711  -37.0564   14.2149 C   0  0  0  0  0  0  0  0  0  0  0  0
  -13.6467  -37.1399   13.8823 O   0  0  0  0  0  0  0  0  0  0  0  0
  -17.4712  -30.7895   26.7405 C   0  0  0  0  0  0  0  0  0  0  0  0
  -16.0517  -31.4706   27.5750 S   0  0  0  0  0  0  0  0  0  0  0  0
  -16.1437  -31.7873   29.2991 C   0  0  0  0  0  0  0  0  0  0  0  0
  -17.0715  -32.8773   29.7812 C   0  0  2  0  0  0  0  0  0  0  0  0
  -16.9199  -33.0141   31.2277 N   0  0  0  0  0  0  0  0  0  0  0  0
  -17.9722  -32.9625   32.1649 C   0  0  0  0  0  0  0  0  0  0  0  0
  -19.1977  -32.7820   31.8525 O   0  0  0  0  0  0  0  0  0  0  0  0
  -17.5767  -33.1361   33.5948 C   0  0  2  0  0  0  0  0  0  0  0  0
  -16.7821  -34.3892   33.8397 C   0  0  0  0  0  0  0  0  0  0  0  0
  -18.7543  -33.1640   34.4374 N   0  0  0  0  0  0  0  0  0  0  0  0
  -16.6307  -34.1618   29.2116 C   0  0  0  0  0  0  0  0  0  0  0  0
  -16.6287  -34.2973   27.9818 O   0  0  0  0  0  0  0  0  0  0  0  0
  -16.1994  -35.3020   29.9674 N   0  0  0  0  0  0  0  0  0  0  0  0
  -15.7727  -36.5053   29.2486 C   0  0  1  0  0  0  0  0  0  0  0  0
  -16.8887  -37.2915   28.6800 C   0  0  0  0  0  0  0  0  0  0  0  0
  -17.7318  -37.6953   29.7136 O   0  0  0  0  0  0  0  0  0  0  0  0
  -14.7773  -36.0211   28.2446 C   0  0  0  0  0  0  0  0  0  0  0  0
  -14.2183  -34.9193   28.2947 O   0  0  0  0  0  0  0  0  0  0  0  0
  -14.3982  -36.8379   27.1047 N   0  0  0  0  0  0  0  0  0  0  0  0
  -13.4899  -36.2102   26.1788 C   0  0  1  0  0  0  0  0  0  0  0  0
  -12.6840  -37.2438   25.4721 C   0  0  0  0  0  0  0  0  0  0  0  0
  -11.7514  -36.6322   24.4508 C   0  0  0  0  0  0  0  0  0  0  0  0
  -10.8883  -37.6397   23.7454 C   0  0  0  0  0  0  0  0  0  0  0  0
  -10.0124  -38.3206   24.6704 N   0  0  0  0  0  0  0  0  0  0  0  0
   -9.1250  -39.2850   24.0405 C   0  0  0  0  0  0  0  0  0  0  0  0
   -8.1994  -40.0247   24.7993 N   0  0  0  0  0  0  0  0  0  0  0  0
   -9.1844  -39.4508   22.7858 N   0  0  0  0  0  0  0  0  0  0  0  0
  -14.2193  -35.3645   25.1978 C   0  0  0  0  0  0  0  0  0  0  0  0
  -13.6622  -34.5487   24.4454 O   0  0  0  0  0  0  0  0  0  0  0  0
  -15.6650  -35.4275   25.0299 N   0  0  0  0  0  0  0  0  0  0  0  0
  -16.1762  -34.4776   24.0799 C   0  0  1  0  0  0  0  0  0  0  0  0
  -16.0593  -35.0696   22.6507 C   0  0  0  0  0  0  0  0  0  0  0  0
  -16.4826  -34.1459   21.6031 C   0  0  0  0  0  0  0  0  0  0  0  0
  -15.5164  -33.2373   21.1733 C   0  0  0  0  0  0  0  0  0  0  0  0
  -15.7284  -32.2908   20.2064 C   0  0  0  0  0  0  0  0  0  0  0  0
  -16.9611  -32.2068   19.6052 C   0  0  0  0  0  0  0  0  0  0  0  0
  -17.1943  -31.2542   18.6265 O   0  0  0  0  0  0  0  0  0  0  0  0
  -17.9250  -33.0964   20.0187 C   0  0  0  0  0  0  0  0  0  0  0  0
  -17.7068  -34.0605   21.0016 C   0  0  0  0  0  0  0  0  0  0  0  0
  -17.5463  -34.0414   24.2694 C   0  0  0  0  0  0  0  0  0  0  0  0
  -17.9987  -33.1987   23.4699 O   0  0  0  0  0  0  0  0  0  0  0  0
  -18.4962  -34.4598   25.2856 N   0  0  0  0  0  0  0  0  0  0  0  0
  -19.7982  -33.8792   25.1851 C   0  0  1  0  0  0  0  0  0  0  0  0
  -20.7677  -34.9247   24.5624 C   0  0  0  0  0  0  0  0  0  0  0  0
  -20.9180  -36.1753   25.3481 C   0  0  0  0  0  0  0  0  0  0  0  0
  -21.5099  -36.0562   26.6894 C   0  0  0  0  0  0  0  0  0  0  0  0
  -20.9687  -36.5808   27.7081 O   0  0  0  0  0  0  0  0  0  0  0  0
  -22.7101  -35.3629   26.9166 O   0  0  0  0  0  0  0  0  0  0  0  0
  -20.5066  -33.4087   26.3725 C   0  0  0  0  0  0  0  0  0  0  0  0
  -20.3037  -33.6444   27.5462 O   0  0  0  0  0  0  0  0  0  0  0  0
  -21.6101  -32.5099   26.0868 N   0  0  0  0  0  0  0  0  0  0  0  0
  -22.6125  -32.0210   26.9573 C   0  0  1  0  0  0  0  0  0  0  0  0
  -22.1890  -30.7376   27.7198 C   0  0  0  0  0  0  0  0  0  0  0  0
  -20.9954  -30.9199   28.5778 C   0  0  0  0  0  0  0  0  0  0  0  0
  -23.3597  -30.4225   28.6178 C   0  0  0  0  0  0  0  0  0  0  0  0
  -23.6938  -31.4526   26.0523 C   0  0  0  0  0  0  0  0  0  0  0  0
  -24.8956  -31.4727   26.3367 O   0  0  0  0  0  0  0  0  0  0  0  0
  -23.3728  -30.8343   24.8105 N   0  0  0  0  0  0  0  0  0  0  0  0
  -24.3180  -30.3912   23.8102 C   0  0  1  0  0  0  0  0  0  0  0  0
  -24.5563  -28.8827   23.9433 C   0  0  0  0  0  0  0  0  0  0  0  0
  -25.5029  -28.3477   22.9480 C   0  0  0  0  0  0  0  0  0  0  0  0
  -25.0700  -27.9825   21.8034 O   0  0  0  0  0  0  0  0  0  0  0  0
  -26.8678  -28.2020   23.1532 O   0  0  0  0  0  0  0  0  0  0  0  0
  -23.8053  -30.7073   22.4479 C   0  0  0  0  0  0  0  0  0  0  0  0
  -24.5076  -30.4622   21.4514 O   0  0  0  0  0  0  0  0  0  0  0  0
  -22.5456  -31.2837   22.1666 N   0  0  0  0  0  0  0  0  0  0  0  0
  1  2  1  0
  3  2  1  1
  3  4  1  0
  4  5  1  0
  5  6  2  0
  5  7  1  0
  7  8  1  6
  8  9  1  0
  9 10  1  0
 10 11  1  0
 11 12  1  0
 12 13  1  0
 12 14  2  0
  7 15  1  0
 15 16  1  0
 16 17  2  0
 16 18  1  0
 18 19  1  0
 19 20  1  0
 20 21  2  0
 20 22  1  0
 22 23  1  1
 23 24  1  0
 24 25  1  0
 25 26  1  0
 26 27  1  0
 27 28  1  0
 27 29  2  0
 22 30  1  0
 30 31  1  0
 31 32  2  0
 31 33  1  0
 33 34  1  0
 34 35  1  0
 35 36  1  0
 36 37  1  0
 37 38  2  0
 38 39  1  0
 39 40  2  0
 40 41  1  0
 41 42  2  0
 41 43  1  0
 43 44  1  0
 44 45  1  0
 45 46  1  0
 46 47  1  1
 47 48  2  0
 47 49  1  0
 49 50  1  0
 50 51  1  0
 51 52  1  0
 51 53  2  0
 46 54  1  0
 54 55  1  0
 55 56  2  0
 55 57  1  0
 57 58  1  6
 57 59  1  0
 59 60  1  0
 60 61  2  0
 60 62  1  0
 62 63  1  1
 63 64  1  0
 62 65  1  0
 65 66  1  0
 66 67  2  0
 39 68  1  0
 68 69  1  0
 69 70  1  0
 70 71  1  0
 71 72  1  1
 72 73  1  0
 73 74  2  0
 73 75  1  0
 75 76  1  6
 75 77  1  0
 71 78  1  0
 78 79  2  0
 78 80  1  0
 80 81  1  0
 81 82  1  6
 82 83  1  0
 81 84  1  0
 84 85  2  0
 84 86  1  0
 86 87  1  0
 87 88  1  6
 88 89  1  0
 89 90  1  0
 90 91  1  0
 91 92  1  0
 92 93  1  0
 92 94  2  0
 87 95  1  0
 95 96  2  0
 95 97  1  0
 97 98  1  0
 98 99  1  6
 99100  1  0
100101  2  0
101102  1  0
102103  2  0
103104  1  0
103105  1  0
105106  2  0
 98107  1  0
107108  2  0
107109  1  0
109110  1  0
110111  1  1
111112  1  0
112113  1  0
113114  2  0
113115  1  0
110116  1  0
116117  2  0
116118  1  0
118119  1  0
119120  1  1
120121  1  0
120122  1  0
119123  1  0
123124  2  0
123125  1  0
125126  1  0
126127  1  6
127128  1  0
128129  2  0
128130  1  0
126131  1  0
131132  2  0
131133  1  0
 66  3  1  0
106100  1  0
 33133  1  1
 42 37  1  0
M  CHG  6  14   1  29   1  77   1  94   1 115  -1 130  -1
M  END
>  <shape_align_shape_tanimoto>  (1) 
0.24247629685799174

>  <shape_align_color_tanimoto>  (1) 
0.0090242995376047068

>  <metric>  (1) 
shape

>  <metric_score>  (1) 
0.242

>  <template_pid>  (1) 
4JK6

>  <template_shape_score>  (1) 
0.242

>  <template_color_score>  (1) 
0.009

>  <template_combo_score>  (1) 
0.126

$$$$
4JK6_color_pose
     RDKit          3D

133136  0  0  0  0  0  0  0  0999 V2000
  -18.3928  -38.2153   27.6323 C   0  0  0  0  0  0  0  0  0  0  0  0
  -17.3283  -37.8038   26.6517 C   0  0  0  0  0  0  0  0  0  0  0  0
  -17.3503  -36.2496   26.5716 C   0  0  1  0  0  0  0  0  0  0  0  0
  -16.3707  -35.8060   25.6182 N   0  0  0  0  0  0  0  0  0  0  0  0
  -15.0750  -36.1982   25.3095 C   0  0  0  0  0  0  0  0  0  0  0  0
  -14.6132  -37.1686   25.9086 O   0  0  0  0  0  0  0  0  0  0  0  0
  -14.2155  -35.4852   24.2620 C   0  0  2  0  0  0  0  0  0  0  0  0
  -12.7859  -35.4767   24.6983 C   0  0  0  0  0  0  0  0  0  0  0  0
  -11.9031  -34.7090   23.6985 C   0  0  0  0  0  0  0  0  0  0  0  0
  -10.4724  -34.6563   24.1173 C   0  0  0  0  0  0  0  0  0  0  0  0
   -9.7653  -35.8908   24.1698 N   0  0  0  0  0  0  0  0  0  0  0  0
   -9.3594  -36.6049   22.9988 C   0  0  0  0  0  0  0  0  0  0  0  0
   -8.6762  -37.8537   23.1653 N   0  0  0  0  0  0  0  0  0  0  0  0
   -9.6030  -36.1689   21.8229 N   0  0  0  0  0  0  0  0  0  0  0  0
  -14.7070  -34.1697   23.9683 N   0  0  0  0  0  0  0  0  0  0  0  0
  -15.7778  -33.8119   23.1172 C   0  0  0  0  0  0  0  0  0  0  0  0
  -16.3887  -34.7299   22.5661 O   0  0  0  0  0  0  0  0  0  0  0  0
  -16.1233  -32.3505   22.9460 C   0  0  0  0  0  0  0  0  0  0  0  0
  -17.3839  -32.1777   22.2875 N   0  0  0  0  0  0  0  0  0  0  0  0
  -17.8151  -32.6747   21.0461 C   0  0  0  0  0  0  0  0  0  0  0  0
  -17.0133  -33.3589   20.4047 O   0  0  0  0  0  0  0  0  0  0  0  0
  -19.2195  -32.3700   20.5616 C   0  0  2  0  0  0  0  0  0  0  0  0
  -20.0699  -31.9950   21.6988 C   0  0  0  0  0  0  0  0  0  0  0  0
  -21.5145  -31.6826   21.4211 C   0  0  0  0  0  0  0  0  0  0  0  0
  -22.0779  -31.2402   22.7902 C   0  0  0  0  0  0  0  0  0  0  0  0
  -23.4606  -30.9175   22.7630 N   0  0  0  0  0  0  0  0  0  0  0  0
  -24.0760  -30.4017   23.9368 C   0  0  0  0  0  0  0  0  0  0  0  0
  -25.4582  -30.0692   23.9420 N   0  0  0  0  0  0  0  0  0  0  0  0
  -23.3717  -30.2217   25.0457 N   0  0  0  0  0  0  0  0  0  0  0  0
  -19.6835  -33.3042   19.5787 N   0  0  0  0  0  0  0  0  0  0  0  0
  -20.4141  -32.8544   18.4426 C   0  0  0  0  0  0  0  0  0  0  0  0
  -20.6755  -31.6283   18.4525 O   0  0  0  0  0  0  0  0  0  0  0  0
  -20.8798  -33.6359   17.3005 C   0  0  2  0  0  0  0  0  0  0  0  0
  -22.4044  -33.4519   17.1654 C   0  0  0  0  0  0  0  0  0  0  0  0
  -22.6576  -33.6814   15.3493 S   0  0  0  0  0  0  0  0  0  0  0  0
  -24.4247  -33.3411   14.9692 C   0  0  0  0  0  0  0  0  0  0  0  0
  -24.6419  -32.0103   15.6547 C   0  0  0  0  0  0  0  0  0  0  0  0
  -24.1542  -30.8166   15.2618 C   0  0  0  0  0  0  0  0  0  0  0  0
  -24.4356  -29.6946   16.0519 C   0  0  0  0  0  0  0  0  0  0  0  0
  -25.2144  -29.8469   17.2283 C   0  0  0  0  0  0  0  0  0  0  0  0
  -25.7013  -31.0511   17.6142 C   0  0  0  0  0  0  0  0  0  0  0  0
  -25.4136  -32.1407   16.8233 C   0  0  0  0  0  0  0  0  0  0  0  0
  -26.5929  -31.3227   18.7945 C   0  0  0  0  0  0  0  0  0  0  0  0
  -26.8219  -33.1418   18.8527 S   0  0  0  0  0  0  0  0  0  0  0  0
  -25.4079  -33.9858   19.6275 C   0  0  0  0  0  0  0  0  0  0  0  0
  -25.7308  -34.3714   21.0373 C   0  0  1  0  0  0  0  0  0  0  0  0
  -26.7592  -35.5263   20.9307 C   0  0  0  0  0  0  0  0  0  0  0  0
  -27.7939  -35.2776   20.2536 O   0  0  0  0  0  0  0  0  0  0  0  0
  -26.5156  -36.7652   21.5559 N   0  0  0  0  0  0  0  0  0  0  0  0
  -27.5437  -37.7909   21.3685 C   0  0  0  0  0  0  0  0  0  0  0  0
  -27.2482  -39.0458   22.0658 C   0  0  0  0  0  0  0  0  0  0  0  0
  -26.1043  -39.2797   22.8706 N   0  0  0  0  0  0  0  0  0  0  0  0
  -28.1070  -39.9886   21.9265 O   0  0  0  0  0  0  0  0  0  0  0  0
  -24.6536  -34.7579   21.8937 N   0  0  0  0  0  0  0  0  0  0  0  0
  -24.9141  -34.8906   23.2858 C   0  0  0  0  0  0  0  0  0  0  0  0
  -26.1333  -34.7486   23.5933 O   0  0  0  0  0  0  0  0  0  0  0  0
  -23.9803  -35.1675   24.3718 C   0  0  2  0  0  0  0  0  0  0  0  0
  -24.2475  -34.0414   25.4300 C   0  0  0  0  0  0  0  0  0  0  0  0
  -22.6153  -34.9793   24.0111 N   0  0  0  0  0  0  0  0  0  0  0  0
  -21.4911  -35.7556   24.4744 C   0  0  0  0  0  0  0  0  0  0  0  0
  -21.7588  -36.6903   25.2094 O   0  0  0  0  0  0  0  0  0  0  0  0
  -20.1380  -35.3241   24.0128 C   0  0  2  0  0  0  0  0  0  0  0  0
  -19.9676  -35.4684   22.5279 C   0  0  0  0  0  0  0  0  0  0  0  0
  -21.0513  -34.9951   21.8474 O   0  0  0  0  0  0  0  0  0  0  0  0
  -19.0024  -35.8596   24.7081 N   0  0  0  0  0  0  0  0  0  0  0  0
  -18.7267  -35.8487   26.0986 C   0  0  0  0  0  0  0  0  0  0  0  0
  -19.6409  -35.5263   26.8464 O   0  0  0  0  0  0  0  0  0  0  0  0
  -24.0507  -28.3243   15.7150 C   0  0  0  0  0  0  0  0  0  0  0  0
  -22.6434  -28.0015   14.7189 S   0  0  0  0  0  0  0  0  0  0  0  0
  -21.0166  -28.2248   15.3974 C   0  0  0  0  0  0  0  0  0  0  0  0
  -19.9389  -27.5857   14.5171 C   0  0  2  0  0  0  0  0  0  0  0  0
  -19.7748  -28.1797   13.2367 N   0  0  0  0  0  0  0  0  0  0  0  0
  -20.3261  -27.5476   12.1062 C   0  0  0  0  0  0  0  0  0  0  0  0
  -20.9992  -26.4588   12.2028 O   0  0  0  0  0  0  0  0  0  0  0  0
  -20.1408  -28.1134   10.7395 C   0  0  2  0  0  0  0  0  0  0  0  0
  -18.6481  -27.8945   10.4151 C   0  0  0  0  0  0  0  0  0  0  0  0
  -20.8993  -27.3722    9.7592 N   0  0  0  0  0  0  0  0  0  0  0  0
  -18.6582  -27.5073   15.2347 C   0  0  0  0  0  0  0  0  0  0  0  0
  -18.6136  -26.8807   16.2991 O   0  0  0  0  0  0  0  0  0  0  0  0
  -17.4313  -28.1097   14.8105 N   0  0  0  0  0  0  0  0  0  0  0  0
  -16.1535  -27.9967   15.4779 C   0  0  1  0  0  0  0  0  0  0  0  0
  -16.1541  -26.8813   16.5445 C   0  0  0  0  0  0  0  0  0  0  0  0
  -14.8181  -26.8956   17.0350 O   0  0  0  0  0  0  0  0  0  0  0  0
  -15.8351  -29.2896   16.1316 C   0  0  0  0  0  0  0  0  0  0  0  0
  -15.0209  -29.4647   17.0416 O   0  0  0  0  0  0  0  0  0  0  0  0
  -16.4980  -30.5248   15.7018 N   0  0  0  0  0  0  0  0  0  0  0  0
  -16.4504  -31.6962   16.4988 C   0  0  1  0  0  0  0  0  0  0  0  0
  -17.6470  -32.5813   16.4487 C   0  0  0  0  0  0  0  0  0  0  0  0
  -17.9953  -33.2470   15.2010 C   0  0  0  0  0  0  0  0  0  0  0  0
  -18.4527  -32.5166   13.9902 C   0  0  0  0  0  0  0  0  0  0  0  0
  -18.8827  -33.5317   12.9764 N   0  0  0  0  0  0  0  0  0  0  0  0
  -19.4244  -33.1808   11.7283 C   0  0  0  0  0  0  0  0  0  0  0  0
  -19.8203  -34.2252   10.8573 N   0  0  0  0  0  0  0  0  0  0  0  0
  -19.5525  -31.9289   11.4393 N   0  0  0  0  0  0  0  0  0  0  0  0
  -15.2244  -32.5723   16.3804 C   0  0  0  0  0  0  0  0  0  0  0  0
  -14.1748  -32.2769   15.8261 O   0  0  0  0  0  0  0  0  0  0  0  0
  -15.3277  -33.8403   16.9593 N   0  0  0  0  0  0  0  0  0  0  0  0
  -14.3171  -34.9005   17.1029 C   0  0  1  0  0  0  0  0  0  0  0  0
  -14.6897  -35.5452   18.3972 C   0  0  0  0  0  0  0  0  0  0  0  0
  -13.9828  -36.6935   18.9001 C   0  0  0  0  0  0  0  0  0  0  0  0
  -14.5468  -37.9589   18.6674 C   0  0  0  0  0  0  0  0  0  0  0  0
  -14.0186  -39.1277   19.0988 C   0  0  0  0  0  0  0  0  0  0  0  0
  -12.8496  -39.1096   19.8162 C   0  0  0  0  0  0  0  0  0  0  0  0
  -12.2485  -40.2593   20.2910 O   0  0  0  0  0  0  0  0  0  0  0  0
  -12.2550  -37.8840   20.0709 C   0  0  0  0  0  0  0  0  0  0  0  0
  -12.8105  -36.6865   19.6201 C   0  0  0  0  0  0  0  0  0  0  0  0
  -14.2843  -35.7342   15.8969 C   0  0  0  0  0  0  0  0  0  0  0  0
  -14.9031  -35.2033   14.8852 O   0  0  0  0  0  0  0  0  0  0  0  0
  -13.7392  -36.9724   15.5973 N   0  0  0  0  0  0  0  0  0  0  0  0
  -13.8616  -37.4335   14.1994 C   0  0  1  0  0  0  0  0  0  0  0  0
  -12.8533  -38.4488   13.8472 C   0  0  0  0  0  0  0  0  0  0  0  0
  -11.4249  -38.0483   14.0060 C   0  0  0  0  0  0  0  0  0  0  0  0
  -10.9790  -36.8894   13.2238 C   0  0  0  0  0  0  0  0  0  0  0  0
  -11.7084  -36.2284   12.4312 O   0  0  0  0  0  0  0  0  0  0  0  0
   -9.6589  -36.4840   13.3520 O   0  0  0  0  0  0  0  0  0  0  0  0
  -15.2291  -37.9161   13.8906 C   0  0  0  0  0  0  0  0  0  0  0  0
  -15.4676  -38.2430   12.7137 O   0  0  0  0  0  0  0  0  0  0  0  0
  -16.3047  -38.0534   14.8154 N   0  0  0  0  0  0  0  0  0  0  0  0
  -17.5776  -38.4539   14.2608 C   0  0  1  0  0  0  0  0  0  0  0  0
  -17.5486  -39.9987   14.0696 C   0  0  0  0  0  0  0  0  0  0  0  0
  -17.3658  -40.7437   15.3386 C   0  0  0  0  0  0  0  0  0  0  0  0
  -18.6934  -40.4666   13.2239 C   0  0  0  0  0  0  0  0  0  0  0  0
  -18.7994  -38.1617   14.9545 C   0  0  0  0  0  0  0  0  0  0  0  0
  -19.8691  -38.5765   14.3532 O   0  0  0  0  0  0  0  0  0  0  0  0
  -19.1069  -37.5064   16.1723 N   0  0  0  0  0  0  0  0  0  0  0  0
  -20.5208  -37.4774   16.5556 C   0  0  1  0  0  0  0  0  0  0  0  0
  -20.6866  -38.3529   17.8160 C   0  0  0  0  0  0  0  0  0  0  0  0
  -22.1201  -38.3022   18.1762 C   0  0  0  0  0  0  0  0  0  0  0  0
  -22.6411  -37.3635   18.8491 O   0  0  0  0  0  0  0  0  0  0  0  0
  -22.9755  -39.3448   17.7619 O   0  0  0  0  0  0  0  0  0  0  0  0
  -21.1078  -36.1530   16.7994 C   0  0  0  0  0  0  0  0  0  0  0  0
  -22.3402  -36.0311   16.6391 O   0  0  0  0  0  0  0  0  0  0  0  0
  -20.4427  -34.9809   17.2184 N   0  0  0  0  0  0  0  0  0  0  0  0
  1  2  1  0
  3  2  1  6
  3  4  1  0
  4  5  1  0
  5  6  2  0
  5  7  1  0
  7  8  1  1
  8  9  1  0
  9 10  1  0
 10 11  1  0
 11 12  1  0
 12 13  1  0
 12 14  2  0
  7 15  1  0
 15 16  1  0
 16 17  2  0
 16 18  1  0
 18 19  1  0
 19 20  1  0
 20 21  2  0
 20 22  1  0
 22 23  1  1
 23 24  1  0
 24 25  1  0
 25 26  1  0
 26 27  1  0
 27 28  1  0
 27 29  2  0
 22 30  1  0
 30 31  1  0
 31 32  2  0
 31 33  1  0
 33 34  1  0
 34 35  1  0
 35 36  1  0
 36 37  1  0
 37 38  2  0
 38 39  1  0
 39 40  2  0
 40 41  1  0
 41 42  2  0
 41 43  1  0
 43 44  1  0
 44 45  1  0
 45 46  1  0
 46 47  1  6
 47 48  2  0
 47 49  1  0
 49 50  1  0
 50 51  1  0
 51 52  1  0
 51 53  2  0
 46 54  1  0
 54 55  1  0
 55 56  2  0
 55 57  1  0
 57 58  1  1
 57 59  1  0
 59 60  1  0
 60 61  2  0
 60 62  1  0
 62 63  1  6
 63 64  1  0
 62 65  1  0
 65 66  1  0
 66 67  2  0
 39 68  1  0
 68 69  1  0
 69 70  1  0
 70 71  1  0
 71 72  1  6
 72 73  1  0
 73 74  2  0
 73 75  1  0
 75 76  1  6
 75 77  1  0
 71 78  1  0
 78 79  2  0
 78 80  1  0
 80 81  1  0
 81 82  1  1
 82 83  1  0
 81 84  1  0
 84 85  2  0
 84 86  1  0
 86 87  1  0
 87 88  1  6
 88 89  1  0
 89 90  1  0
 90 91  1  0
 91 92  1  0
 92 93  1  0
 92 94  2  0
 87 95  1  0
 95 96  2  0
 95 97  1  0
 97 98  1  0
 98 99  1  1
 99100  1  0
100101  2  0
101102  1  0
102103  2  0
103104  1  0
103105  1  0
105106  2  0
 98107  1  0
107108  2  0
107109  1  0
109110  1  0
110111  1  1
111112  1  0
112113  1  0
113114  2  0
113115  1  0
110116  1  0
116117  2  0
116118  1  0
118119  1  0
119120  1  1
120121  1  0
120122  1  0
119123  1  0
123124  2  0
123125  1  0
125126  1  0
126127  1  1
127128  1  0
128129  2  0
128130  1  0
126131  1  0
131132  2  0
131133  1  0
 66  3  1  0
106100  1  0
 33133  1  1
 42 37  1  0
M  CHG  6  14   1  29   1  77   1  94   1 115  -1 130  -1
M  END
>  <shape_align_shape_tanimoto>  (2) 
0.21143262172594768

>  <shape_align_color_tanimoto>  (2) 
0.024835140093577866

>  <metric>  (2) 
color

>  <metric_score>  (2) 
0.025

>  <template_pid>  (2) 
4JK6

>  <template_shape_score>  (2) 
0.211

>  <template_color_score>  (2) 
0.025

>  <template_combo_score>  (2) 
0.118

$$$$
4JK6_combo_pose
     RDKit          3D

133136  0  0  0  0  0  0  0  0999 V2000
  -10.5570  -44.1779   19.2689 C   0  0  0  0  0  0  0  0  0  0  0  0
  -10.1830  -42.7480   18.9955 C   0  0  0  0  0  0  0  0  0  0  0  0
  -11.1997  -41.9853   18.2224 C   0  0  1  0  0  0  0  0  0  0  0  0
  -11.4589  -42.5687   16.9185 N   0  0  0  0  0  0  0  0  0  0  0  0
  -11.9266  -41.6341   15.8973 C   0  0  0  0  0  0  0  0  0  0  0  0
  -12.0123  -40.4685   16.2834 O   0  0  0  0  0  0  0  0  0  0  0  0
  -12.2585  -42.1149   14.5250 C   0  0  2  0  0  0  0  0  0  0  0  0
  -11.1988  -42.9676   13.9320 C   0  0  0  0  0  0  0  0  0  0  0  0
   -9.8575  -42.3607   13.8295 C   0  0  0  0  0  0  0  0  0  0  0  0
   -9.6890  -41.1226   13.0504 C   0  0  0  0  0  0  0  0  0  0  0  0
  -10.0033  -41.1603   11.6536 N   0  0  0  0  0  0  0  0  0  0  0  0
   -9.8073  -39.9266   10.9245 C   0  0  0  0  0  0  0  0  0  0  0  0
  -10.1086  -39.9433    9.5505 N   0  0  0  0  0  0  0  0  0  0  0  0
   -9.3772  -38.8575   11.4927 N   0  0  0  0  0  0  0  0  0  0  0  0
  -12.8932  -41.1633   13.6580 N   0  0  0  0  0  0  0  0  0  0  0  0
  -14.2960  -40.8244   13.8321 C   0  0  0  0  0  0  0  0  0  0  0  0
  -14.7951  -41.2871   14.8678 O   0  0  0  0  0  0  0  0  0  0  0  0
  -15.0573  -39.9989   12.8741 C   0  0  0  0  0  0  0  0  0  0  0  0
  -16.4301  -39.7311   13.3326 N   0  0  0  0  0  0  0  0  0  0  0  0
  -16.5932  -38.9196   14.4876 C   0  0  0  0  0  0  0  0  0  0  0  0
  -15.5115  -38.4973   14.9638 O   0  0  0  0  0  0  0  0  0  0  0  0
  -17.8392  -38.5223   15.1641 C   0  0  2  0  0  0  0  0  0  0  0  0
  -19.0275  -39.2565   14.7124 C   0  0  0  0  0  0  0  0  0  0  0  0
  -18.9505  -40.7534   14.9643 C   0  0  0  0  0  0  0  0  0  0  0  0
  -20.1740  -41.4630   14.4951 C   0  0  0  0  0  0  0  0  0  0  0  0
  -20.0989  -42.8749   14.7300 N   0  0  0  0  0  0  0  0  0  0  0  0
  -19.2306  -43.7726   14.0786 C   0  0  0  0  0  0  0  0  0  0  0  0
  -19.2802  -45.1642   14.4341 N   0  0  0  0  0  0  0  0  0  0  0  0
  -18.3957  -43.4121   13.1796 N   0  0  0  0  0  0  0  0  0  0  0  0
  -18.0498  -37.0858   15.1866 N   0  0  0  0  0  0  0  0  0  0  0  0
  -17.3229  -36.1921   16.0235 C   0  0  0  0  0  0  0  0  0  0  0  0
  -16.4786  -36.7560   16.7536 O   0  0  0  0  0  0  0  0  0  0  0  0
  -17.4675  -34.7540   16.0825 C   0  0  2  0  0  0  0  0  0  0  0  0
  -18.0938  -34.0229   14.9610 C   0  0  0  0  0  0  0  0  0  0  0  0
  -19.8325  -34.1502   14.8068 S   0  0  0  0  0  0  0  0  0  0  0  0
  -20.8314  -33.2741   15.9255 C   0  0  0  0  0  0  0  0  0  0  0  0
  -21.1000  -33.7296   17.2902 C   0  0  0  0  0  0  0  0  0  0  0  0
  -21.5512  -32.7566   18.1937 C   0  0  0  0  0  0  0  0  0  0  0  0
  -21.9704  -33.0825   19.4831 C   0  0  0  0  0  0  0  0  0  0  0  0
  -21.9172  -34.4168   19.8429 C   0  0  0  0  0  0  0  0  0  0  0  0
  -21.4740  -35.3843   18.9710 C   0  0  0  0  0  0  0  0  0  0  0  0
  -21.0609  -35.0526   17.6888 C   0  0  0  0  0  0  0  0  0  0  0  0
  -21.4289  -36.8453   19.3669 C   0  0  0  0  0  0  0  0  0  0  0  0
  -19.8191  -37.4945   19.3925 S   0  0  0  0  0  0  0  0  0  0  0  0
  -19.4028  -39.1339   19.7403 C   0  0  0  0  0  0  0  0  0  0  0  0
  -19.5905  -39.7230   21.1039 C   0  0  1  0  0  0  0  0  0  0  0  0
  -20.9497  -40.1126   21.3955 C   0  0  0  0  0  0  0  0  0  0  0  0
  -21.9871  -39.3901   21.2023 O   0  0  0  0  0  0  0  0  0  0  0  0
  -21.2672  -41.4082   21.9597 N   0  0  0  0  0  0  0  0  0  0  0  0
  -22.6298  -41.7797   22.2529 C   0  0  0  0  0  0  0  0  0  0  0  0
  -22.7018  -43.1360   22.8292 C   0  0  0  0  0  0  0  0  0  0  0  0
  -21.5875  -43.9861   23.0520 N   0  0  0  0  0  0  0  0  0  0  0  0
  -23.8367  -43.6164   23.1608 O   0  0  0  0  0  0  0  0  0  0  0  0
  -18.6359  -40.7845   21.3243 N   0  0  0  0  0  0  0  0  0  0  0  0
  -17.9153  -41.0443   22.5188 C   0  0  0  0  0  0  0  0  0  0  0  0
  -18.3566  -40.5499   23.5521 O   0  0  0  0  0  0  0  0  0  0  0  0
  -16.7064  -41.9055   22.4014 C   0  0  2  0  0  0  0  0  0  0  0  0
  -15.6179  -41.2490   23.3280 C   0  0  0  0  0  0  0  0  0  0  0  0
  -16.1998  -41.8850   21.0529 N   0  0  0  0  0  0  0  0  0  0  0  0
  -15.2096  -42.6918   20.4420 C   0  0  0  0  0  0  0  0  0  0  0  0
  -14.6789  -43.5303   21.1543 O   0  0  0  0  0  0  0  0  0  0  0  0
  -14.9429  -42.3878   19.0061 C   0  0  2  0  0  0  0  0  0  0  0  0
  -16.0023  -42.9008   18.0803 C   0  0  0  0  0  0  0  0  0  0  0  0
  -17.2538  -42.5793   18.5573 O   0  0  0  0  0  0  0  0  0  0  0  0
  -13.6457  -42.7367   18.4835 N   0  0  0  0  0  0  0  0  0  0  0  0
  -12.5350  -41.9536   18.9413 C   0  0  0  0  0  0  0  0  0  0  0  0
  -12.7439  -41.2720   19.9515 O   0  0  0  0  0  0  0  0  0  0  0  0
  -22.5682  -32.1000   20.3964 C   0  0  0  0  0  0  0  0  0  0  0  0
  -21.6565  -30.8967   21.1530 S   0  0  0  0  0  0  0  0  0  0  0  0
  -20.5806  -30.9280   22.4895 C   0  0  0  0  0  0  0  0  0  0  0  0
  -21.1516  -31.1561   23.9033 C   0  0  2  0  0  0  0  0  0  0  0  0
  -22.1873  -30.1411   24.1444 N   0  0  0  0  0  0  0  0  0  0  0  0
  -23.5190  -30.6093   24.0721 C   0  0  0  0  0  0  0  0  0  0  0  0
  -23.7250  -31.8312   23.7955 O   0  0  0  0  0  0  0  0  0  0  0  0
  -24.7287  -29.7938   24.2909 C   0  0  2  0  0  0  0  0  0  0  0  0
  -25.0047  -29.9112   25.8055 C   0  0  0  0  0  0  0  0  0  0  0  0
  -25.8256  -30.5846   23.6820 N   0  0  0  0  0  0  0  0  0  0  0  0
  -20.0705  -30.8051   24.8672 C   0  0  0  0  0  0  0  0  0  0  0  0
  -20.0632  -29.6693   25.3701 O   0  0  0  0  0  0  0  0  0  0  0  0
  -19.0361  -31.6678   25.2801 N   0  0  0  0  0  0  0  0  0  0  0  0
  -17.9241  -31.2851   26.1848 C   0  0  1  0  0  0  0  0  0  0  0  0
  -18.5133  -31.3122   27.6452 C   0  0  0  0  0  0  0  0  0  0  0  0
  -19.5477  -30.4347   27.7836 O   0  0  0  0  0  0  0  0  0  0  0  0
  -16.9794  -32.4116   26.2064 C   0  0  0  0  0  0  0  0  0  0  0  0
  -17.3094  -33.4104   25.5346 O   0  0  0  0  0  0  0  0  0  0  0  0
  -15.7365  -32.5433   26.8817 N   0  0  0  0  0  0  0  0  0  0  0  0
  -15.0945  -33.8555   26.8002 C   0  0  1  0  0  0  0  0  0  0  0  0
  -15.7252  -34.8735   27.6365 C   0  0  0  0  0  0  0  0  0  0  0  0
  -15.7949  -34.6281   29.1088 C   0  0  0  0  0  0  0  0  0  0  0  0
  -14.5443  -34.4739   29.8680 C   0  0  0  0  0  0  0  0  0  0  0  0
  -13.7120  -33.3653   29.5877 N   0  0  0  0  0  0  0  0  0  0  0  0
  -12.4379  -33.3051   30.2922 C   0  0  0  0  0  0  0  0  0  0  0  0
  -11.5653  -32.2014   30.0282 N   0  0  0  0  0  0  0  0  0  0  0  0
  -12.1080  -34.2467   31.1452 N   0  0  0  0  0  0  0  0  0  0  0  0
  -14.7795  -34.2383   25.3949 C   0  0  0  0  0  0  0  0  0  0  0  0
  -14.6686  -33.3489   24.5614 O   0  0  0  0  0  0  0  0  0  0  0  0
  -14.5990  -35.5694   24.9202 N   0  0  0  0  0  0  0  0  0  0  0  0
  -14.2690  -35.8228   23.5134 C   0  0  1  0  0  0  0  0  0  0  0  0
  -13.4074  -37.0081   23.3323 C   0  0  0  0  0  0  0  0  0  0  0  0
  -13.0532  -37.2550   21.8979 C   0  0  0  0  0  0  0  0  0  0  0  0
  -13.7939  -38.0657   21.0675 C   0  0  0  0  0  0  0  0  0  0  0  0
  -13.3997  -38.1695   19.7667 C   0  0  0  0  0  0  0  0  0  0  0  0
  -12.2931  -37.5089   19.2301 C   0  0  0  0  0  0  0  0  0  0  0  0
  -11.9229  -37.6417   17.9113 O   0  0  0  0  0  0  0  0  0  0  0  0
  -11.5765  -36.7149   20.0699 C   0  0  0  0  0  0  0  0  0  0  0  0
  -11.9603  -36.5957   21.3870 C   0  0  0  0  0  0  0  0  0  0  0  0
  -15.5691  -35.8965   22.7396 C   0  0  0  0  0  0  0  0  0  0  0  0
  -15.6618  -36.1282   21.5418 O   0  0  0  0  0  0  0  0  0  0  0  0
  -16.8262  -35.6852   23.4114 N   0  0  0  0  0  0  0  0  0  0  0  0
  -18.0865  -35.6514   22.6771 C   0  0  1  0  0  0  0  0  0  0  0  0
  -19.1987  -35.7923   23.6431 C   0  0  0  0  0  0  0  0  0  0  0  0
  -20.5868  -35.7784   23.0771 C   0  0  0  0  0  0  0  0  0  0  0  0
  -21.5160  -35.9201   24.2587 C   0  0  0  0  0  0  0  0  0  0  0  0
  -21.1001  -36.0400   25.4291 O   0  0  0  0  0  0  0  0  0  0  0  0
  -22.9048  -35.9151   24.0233 O   0  0  0  0  0  0  0  0  0  0  0  0
  -18.1885  -34.3132   21.9318 C   0  0  0  0  0  0  0  0  0  0  0  0
  -19.1407  -34.0141   21.2400 O   0  0  0  0  0  0  0  0  0  0  0  0
  -17.1407  -33.3537   22.0353 N   0  0  0  0  0  0  0  0  0  0  0  0
  -17.1537  -32.0476   21.3383 C   0  0  1  0  0  0  0  0  0  0  0  0
  -16.8472  -30.8906   22.1560 C   0  0  0  0  0  0  0  0  0  0  0  0
  -15.5196  -30.7844   22.8242 C   0  0  0  0  0  0  0  0  0  0  0  0
  -17.0965  -29.5738   21.4363 C   0  0  0  0  0  0  0  0  0  0  0  0
  -16.3420  -32.3493   20.1377 C   0  0  0  0  0  0  0  0  0  0  0  0
  -16.0065  -33.5470   20.0063 O   0  0  0  0  0  0  0  0  0  0  0  0
  -15.8953  -31.4792   19.1284 N   0  0  0  0  0  0  0  0  0  0  0  0
  -15.2146  -32.1538   17.9914 C   0  0  1  0  0  0  0  0  0  0  0  0
  -14.0207  -32.9275   18.3284 C   0  0  0  0  0  0  0  0  0  0  0  0
  -12.9381  -32.0706   18.9619 C   0  0  0  0  0  0  0  0  0  0  0  0
  -13.2233  -30.8442   19.0890 O   0  0  0  0  0  0  0  0  0  0  0  0
  -11.7351  -32.6158   19.3642 O   0  0  0  0  0  0  0  0  0  0  0  0
  -16.3018  -33.0092   17.4909 C   0  0  0  0  0  0  0  0  0  0  0  0
  -17.4502  -32.8100   17.9814 O   0  0  0  0  0  0  0  0  0  0  0  0
  -16.2504  -34.0331   16.5372 N   0  0  0  0  0  0  0  0  0  0  0  0
  1  2  1  0
  3  2  1  1
  3  4  1  0
  4  5  1  0
  5  6  2  0
  5  7  1  0
  7  8  1  6
  8  9  1  0
  9 10  1  0
 10 11  1  0
 11 12  1  0
 12 13  1  0
 12 14  2  0
  7 15  1  0
 15 16  1  0
 16 17  2  0
 16 18  1  0
 18 19  1  0
 19 20  1  0
 20 21  2  0
 20 22  1  0
 22 23  1  6
 23 24  1  0
 24 25  1  0
 25 26  1  0
 26 27  1  0
 27 28  1  0
 27 29  2  0
 22 30  1  0
 30 31  1  0
 31 32  2  0
 31 33  1  0
 33 34  1  0
 34 35  1  0
 35 36  1  0
 36 37  1  0
 37 38  2  0
 38 39  1  0
 39 40  2  0
 40 41  1  0
 41 42  2  0
 41 43  1  0
 43 44  1  0
 44 45  1  0
 45 46  1  0
 46 47  1  6
 47 48  2  0
 47 49  1  0
 49 50  1  0
 50 51  1  0
 51 52  1  0
 51 53  2  0
 46 54  1  0
 54 55  1  0
 55 56  2  0
 55 57  1  0
 57 58  1  1
 57 59  1  0
 59 60  1  0
 60 61  2  0
 60 62  1  0
 62 63  1  6
 63 64  1  0
 62 65  1  0
 65 66  1  0
 66 67  2  0
 39 68  1  0
 68 69  1  0
 69 70  1  0
 70 71  1  0
 71 72  1  1
 72 73  1  0
 73 74  2  0
 73 75  1  0
 75 76  1  1
 75 77  1  0
 71 78  1  0
 78 79  2  0
 78 80  1  0
 80 81  1  0
 81 82  1  1
 82 83  1  0
 81 84  1  0
 84 85  2  0
 84 86  1  0
 86 87  1  0
 87 88  1  6
 88 89  1  0
 89 90  1  0
 90 91  1  0
 91 92  1  0
 92 93  1  0
 92 94  2  0
 87 95  1  0
 95 96  2  0
 95 97  1  0
 97 98  1  0
 98 99  1  1
 99100  1  0
100101  2  0
101102  1  0
102103  2  0
103104  1  0
103105  1  0
105106  2  0
 98107  1  0
107108  2  0
107109  1  0
109110  1  0
110111  1  1
111112  1  0
112113  1  0
113114  2  0
113115  1  0
110116  1  0
116117  2  0
116118  1  0
118119  1  0
119120  1  1
120121  1  0
120122  1  0
119123  1  0
123124  2  0
123125  1  0
125126  1  0
126127  1  1
127128  1  0
128129  2  0
128130  1  0
126131  1  0
131132  2  0
131133  1  0
 66  3  1  0
106100  1  0
 33133  1  6
 42 37  1  0
M  CHG  6  14   1  29   1  77   1  94   1 115  -1 130  -1
M  END
>  <shape_align_shape_tanimoto>  (3) 
0.24081847096757852

>  <shape_align_color_tanimoto>  (3) 
0.011052318831217788

>  <metric>  (3) 
combo

>  <metric_score>  (3) 
0.126

>  <template_pid>  (3) 
4JK6

>  <template_shape_score>  (3) 
0.241

>  <template_color_score>  (3) 
0.011

>  <template_combo_score>  (3) 
0.126

$$$$
