4WYM_shape_pose
     RDKit          3D

 99105  0  0  0  0  0  0  0  0999 V2000
   -0.0299   13.0566   -0.1330 C   0  0  0  0  0  0  0  0  0  0  0  0
    0.8208   12.7534   -1.3418 C   0  0  0  0  0  0  0  0  0  0  0  0
    2.1553   12.2220   -0.7819 C   0  0  0  0  0  0  0  0  0  0  0  0
    0.2674   11.7370   -2.2877 C   0  0  0  0  0  0  0  0  0  0  0  0
   -1.0406   12.0517   -2.9290 C   0  0  2  0  0  0  0  0  0  0  0  0
   -2.0905   12.2034   -1.9577 N   0  0  0  0  0  0  0  0  0  0  0  0
   -2.9882   13.2683   -2.0672 C   0  0  0  0  0  0  0  0  0  0  0  0
   -2.8013   14.0555   -3.0865 O   0  0  0  0  0  0  0  0  0  0  0  0
   -4.1161   13.6358   -1.2031 C   0  0  1  0  0  0  0  0  0  0  0  0
   -4.8628   14.7457   -1.8297 N   0  0  0  0  0  0  0  0  0  0  0  0
   -4.8537   16.0705   -1.3128 C   0  0  0  0  0  0  0  0  0  0  0  0
   -4.1670   16.2904   -0.2599 O   0  0  0  0  0  0  0  0  0  0  0  0
   -5.6275   17.1114   -2.0080 C   0  0  2  0  0  0  0  0  0  0  0  0
   -5.3298   17.2727   -3.4664 C   0  0  0  0  0  0  0  0  0  0  0  0
   -4.8840   18.7255   -3.6157 C   0  0  0  0  0  0  0  0  0  0  0  0
   -4.6046   19.1990   -2.1894 C   0  0  0  0  0  0  0  0  0  0  0  0
   -5.5148   18.4117   -1.4103 N   0  0  0  0  0  0  0  0  0  0  0  0
   -5.0126   12.5726   -0.6865 C   0  0  0  0  0  0  0  0  0  0  0  0
   -4.3675   11.5255    0.1876 C   0  0  0  0  0  0  0  0  0  0  0  0
   -5.8895   11.9205   -1.7715 C   0  0  0  0  0  0  0  0  0  0  0  0
   -1.3462   11.0267   -3.9895 C   0  0  0  0  0  0  0  0  0  0  0  0
   -0.4425   10.7932   -4.8361 O   0  0  0  0  0  0  0  0  0  0  0  0
   -2.6253   10.3523   -4.0321 N   0  0  0  0  0  0  0  0  0  0  0  0
   -3.0036    9.4049   -5.0320 C   0  0  1  0  0  0  0  0  0  0  0  0
   -3.4210   10.0120   -6.3650 C   0  0  0  0  0  0  0  0  0  0  0  0
   -2.4206   10.8265   -7.0474 C   0  0  0  0  0  0  0  0  0  0  0  0
   -2.4145   12.2251   -6.8712 C   0  0  0  0  0  0  0  0  0  0  0  0
   -1.4701   13.0076   -7.5135 C   0  0  0  0  0  0  0  0  0  0  0  0
   -0.5269   12.4114   -8.3319 C   0  0  0  0  0  0  0  0  0  0  0  0
   -0.5060   11.0366   -8.5253 C   0  0  0  0  0  0  0  0  0  0  0  0
   -1.4567   10.2654   -7.8781 C   0  0  0  0  0  0  0  0  0  0  0  0
   -2.3322    8.1279   -5.1711 C   0  0  0  0  0  0  0  0  0  0  0  0
   -2.6386    7.5117   -6.3069 O   0  0  0  0  0  0  0  0  0  0  0  0
   -1.4387    7.4075   -4.3691 N   0  0  0  0  0  0  0  0  0  0  0  0
   -0.8605    7.6123   -3.0570 C   0  0  0  0  0  0  0  0  0  0  0  0
    0.5380    7.0401   -3.1010 C   0  0  0  0  0  0  0  0  0  0  0  0
    0.5716    6.2289   -4.3629 C   0  0  0  0  0  0  0  0  0  0  0  0
   -0.8515    6.1195   -4.7999 C   0  0  1  0  0  0  0  0  0  0  0  0
   -1.4979    4.9523   -4.1509 C   0  0  0  0  0  0  0  0  0  0  0  0
   -2.4668    5.0381   -3.3529 O   0  0  0  0  0  0  0  0  0  0  0  0
   -0.9472    3.6578   -4.4897 N   0  0  0  0  0  0  0  0  0  0  0  0
   -1.4274    2.4136   -3.9879 C   0  0  0  0  0  0  0  0  0  0  0  0
   -1.3356    2.2187   -2.4983 C   0  0  0  0  0  0  0  0  0  0  0  0
   -1.8388    1.0809   -2.1350 O   0  0  0  0  0  0  0  0  0  0  0  0
   -0.7761    3.1460   -1.6120 N   0  0  0  0  0  0  0  0  0  0  0  0
   -0.6541    3.1046   -0.1878 C   0  0  1  0  0  0  0  0  0  0  0  0
   -1.5968    2.0504    0.4020 C   0  0  0  0  0  0  0  0  0  0  0  0
   -3.0148    2.4718    0.0990 C   0  0  0  0  0  0  0  0  0  0  0  0
   -4.0382    1.4856    0.5362 C   0  0  0  0  0  0  0  0  0  0  0  0
   -5.4380    1.7487    0.3225 N   0  0  0  0  0  0  0  0  0  0  0  0
   -3.7701    0.3896    1.1022 O   0  0  0  0  0  0  0  0  0  0  0  0
    0.6463    3.1104    0.4103 C   0  0  0  0  0  0  0  0  0  0  0  0
    0.7038    3.2149    1.7098 O   0  0  0  0  0  0  0  0  0  0  0  0
    1.9247    3.0198   -0.2064 N   0  0  0  0  0  0  0  0  0  0  0  0
    2.1882    2.8309   -1.6380 C   0  0  0  0  0  0  0  0  0  0  0  0
    3.5781    2.2500   -1.7743 C   0  0  0  0  0  0  0  0  0  0  0  0
    4.1078    2.1500   -0.3835 C   0  0  0  0  0  0  0  0  0  0  0  0
    3.2550    3.1172    0.3937 C   0  0  1  0  0  0  0  0  0  0  0  0
    3.8217    4.4918    0.1940 C   0  0  0  0  0  0  0  0  0  0  0  0
    5.0392    4.7615    0.4385 O   0  0  0  0  0  0  0  0  0  0  0  0
    2.9561    5.4972   -0.2831 N   0  0  0  0  0  0  0  0  0  0  0  0
    3.2413    6.8622   -0.5821 C   0  0  1  0  0  0  0  0  0  0  0  0
    3.9132    7.5971    0.5680 C   0  0  0  0  0  0  0  0  0  0  0  0
    3.1238    7.6359    1.8053 C   0  0  0  0  0  0  0  0  0  0  0  0
    3.2381    6.6662    2.7989 C   0  0  0  0  0  0  0  0  0  0  0  0
    2.4788    6.7075    3.9640 C   0  0  0  0  0  0  0  0  0  0  0  0
    1.5528    7.7368    4.1971 C   0  0  0  0  0  0  0  0  0  0  0  0
    1.4459    8.6936    3.2083 C   0  0  0  0  0  0  0  0  0  0  0  0
    2.2013    8.6544    2.0475 C   0  0  0  0  0  0  0  0  0  0  0  0
    4.2240    6.8353   -1.7270 C   0  0  0  0  0  0  0  0  0  0  0  0
    4.9876    5.8582   -1.9433 O   0  0  0  0  0  0  0  0  0  0  0  0
    4.3145    7.9577   -2.6441 N   0  0  0  0  0  0  0  0  0  0  0  0
    5.2798    7.8477   -3.6874 C   0  0  0  0  0  0  0  0  0  0  0  0
    5.2433    8.9063   -4.7212 C   0  0  0  0  0  0  0  0  0  0  0  0
    6.1648    8.8198   -5.6169 O   0  0  0  0  0  0  0  0  0  0  0  0
    4.2603    9.9483   -4.7514 N   0  0  0  0  0  0  0  0  0  0  0  0
    4.2495   10.9530   -5.8606 C   0  0  1  0  0  0  0  0  0  0  0  0
    5.4957   11.7910   -5.7848 C   0  0  0  0  0  0  0  0  0  0  0  0
    5.5545   12.5445   -4.4402 C   0  0  0  0  0  0  0  0  0  0  0  0
    6.7741   13.3776   -4.3475 C   0  0  0  0  0  0  0  0  0  0  0  0
    6.9249   14.2046   -3.1934 N   0  0  0  0  0  0  0  0  0  0  0  0
    7.6742   13.3760   -5.2495 O   0  0  0  0  0  0  0  0  0  0  0  0
    4.0895   10.2219   -7.1334 C   0  0  0  0  0  0  0  0  0  0  0  0
    4.1094    8.9381   -7.0211 O   0  0  0  0  0  0  0  0  0  0  0  0
    3.9213   10.7365   -8.4216 N   0  0  0  0  0  0  0  0  0  0  0  0
    3.8053   12.1331   -8.9046 C   0  0  0  0  0  0  0  0  0  0  0  0
    4.9249   12.1241   -9.9612 C   0  0  0  0  0  0  0  0  0  0  0  0
    5.0985   10.6256  -10.3502 C   0  0  0  0  0  0  0  0  0  0  0  0
    3.8734   10.0180   -9.7266 C   0  0  1  0  0  0  0  0  0  0  0  0
    3.7232    8.5916   -9.6533 C   0  0  0  0  0  0  0  0  0  0  0  0
    2.7733    8.1576   -8.8777 O   0  0  0  0  0  0  0  0  0  0  0  0
    4.4576    7.5612  -10.2984 N   0  0  0  0  0  0  0  0  0  0  0  0
    5.5616    7.5874  -11.2348 C   0  0  0  0  0  0  0  0  0  0  0  0
    6.4669    6.4422  -10.7800 C   0  0  0  0  0  0  0  0  0  0  0  0
    5.6725    5.7195   -9.7031 C   0  0  0  0  0  0  0  0  0  0  0  0
    4.2329    6.1103  -10.1114 C   0  0  1  0  0  0  0  0  0  0  0  0
    3.3056    5.7812   -9.0314 C   0  0  0  0  0  0  0  0  0  0  0  0
    2.0562    5.6606   -9.1324 O   0  0  0  0  0  0  0  0  0  0  0  0
    3.8337    5.5737   -7.7430 O   0  0  0  0  0  0  0  0  0  0  0  0
  1  2  1  0
  2  3  1  0
  2  4  1  0
  5  4  1  1
  5  6  1  0
  6  7  1  0
  7  8  2  0
  7  9  1  0
  9 10  1  6
 10 11  1  0
 11 12  2  0
 13 11  1  1
 13 14  1  0
 14 15  1  0
 15 16  1  0
 16 17  1  0
  9 18  1  0
 18 19  1  0
 18 20  1  0
  5 21  1  0
 21 22  2  0
 21 23  1  0
 23 24  1  0
 24 25  1  6
 25 26  1  0
 26 27  2  0
 27 28  1  0
 28 29  2  0
 29 30  1  0
 30 31  2  0
 24 32  1  0
 32 33  2  0
 32 34  1  0
 34 35  1  0
 35 36  1  0
 36 37  1  0
 37 38  1  0
 38 39  1  1
 39 40  2  0
 39 41  1  0
 41 42  1  0
 42 43  1  0
 43 44  2  0
 43 45  1  0
 45 46  1  0
 46 47  1  6
 47 48  1  0
 48 49  1  0
 49 50  1  0
 49 51  2  0
 46 52  1  0
 52 53  2  0
 52 54  1  0
 54 55  1  0
 55 56  1  0
 56 57  1  0
 57 58  1  0
 58 59  1  6
 59 60  2  0
 59 61  1  0
 61 62  1  0
 62 63  1  1
 63 64  1  0
 64 65  2  0
 65 66  1  0
 66 67  2  0
 67 68  1  0
 68 69  2  0
 62 70  1  0
 70 71  2  0
 70 72  1  0
 72 73  1  0
 73 74  1  0
 74 75  2  0
 74 76  1  0
 76 77  1  0
 77 78  1  6
 78 79  1  0
 79 80  1  0
 80 81  1  0
 80 82  2  0
 77 83  1  0
 83 84  2  0
 83 85  1  0
 85 86  1  0
 86 87  1  0
 87 88  1  0
 88 89  1  0
 89 90  1  1
 90 91  2  0
 90 92  1  0
 92 93  1  0
 93 94  1  0
 94 95  1  0
 95 96  1  0
 96 97  1  1
 97 98  2  0
 97 99  1  0
 17 13  1  0
 31 26  1  0
 38 34  1  0
 58 54  1  0
 69 64  1  0
 89 85  1  0
 96 92  1  0
M  CHG  2  17   1  99  -1
M  END
>  <shape_align_shape_tanimoto>  (1) 
0.36750876195971505

>  <shape_align_color_tanimoto>  (1) 
0.017160614912305548

>  <metric>  (1) 
shape

>  <metric_score>  (1) 
0.368

>  <template_pid>  (1) 
4WYM

>  <template_shape_score>  (1) 
0.368

>  <template_color_score>  (1) 
0.017

>  <template_combo_score>  (1) 
0.192

$$$$
4WYM_color_pose
     RDKit          3D

 99105  0  0  0  0  0  0  0  0999 V2000
    7.5218   13.9712   -6.8824 C   0  0  0  0  0  0  0  0  0  0  0  0
    6.9851   12.5112   -6.9436 C   0  0  0  0  0  0  0  0  0  0  0  0
    8.2876   11.6659   -6.7600 C   0  0  0  0  0  0  0  0  0  0  0  0
    6.1884   12.3173   -5.7015 C   0  0  0  0  0  0  0  0  0  0  0  0
    5.5224   10.9951   -5.4721 C   0  0  2  0  0  0  0  0  0  0  0  0
    4.4833   10.5404   -6.3298 N   0  0  0  0  0  0  0  0  0  0  0  0
    3.8784   11.0695   -7.4691 C   0  0  0  0  0  0  0  0  0  0  0  0
    4.1121   12.1602   -8.0401 O   0  0  0  0  0  0  0  0  0  0  0  0
    2.7855   10.2441   -8.1350 C   0  0  1  0  0  0  0  0  0  0  0  0
    2.3124   11.0143   -9.2619 N   0  0  0  0  0  0  0  0  0  0  0  0
    1.0076   11.6276   -9.2916 C   0  0  0  0  0  0  0  0  0  0  0  0
    0.1920   11.5274   -8.3226 O   0  0  0  0  0  0  0  0  0  0  0  0
    0.5998   12.4091  -10.5055 C   0  0  2  0  0  0  0  0  0  0  0  0
    1.4290   13.6819  -10.6545 C   0  0  0  0  0  0  0  0  0  0  0  0
    0.5690   14.4855  -11.6249 C   0  0  0  0  0  0  0  0  0  0  0  0
   -0.8270   13.8961  -11.4311 C   0  0  0  0  0  0  0  0  0  0  0  0
   -0.7318   12.9652  -10.3119 N   0  0  0  0  0  0  0  0  0  0  0  0
    3.2466    8.8545   -8.4567 C   0  0  0  0  0  0  0  0  0  0  0  0
    4.4350    8.8289   -9.4036 C   0  0  0  0  0  0  0  0  0  0  0  0
    2.0945    8.1174   -9.1415 C   0  0  0  0  0  0  0  0  0  0  0  0
    5.3285   10.7726   -4.0314 C   0  0  0  0  0  0  0  0  0  0  0  0
    6.2378   11.2062   -3.2450 O   0  0  0  0  0  0  0  0  0  0  0  0
    4.1821   10.1000   -3.4661 N   0  0  0  0  0  0  0  0  0  0  0  0
    4.0662    9.9227   -1.9956 C   0  0  1  0  0  0  0  0  0  0  0  0
    2.8631   10.6699   -1.4846 C   0  0  0  0  0  0  0  0  0  0  0  0
    1.5668   10.2349   -2.0900 C   0  0  0  0  0  0  0  0  0  0  0  0
    0.7456    9.2645   -1.5471 C   0  0  0  0  0  0  0  0  0  0  0  0
   -0.4523    8.8515   -2.1043 C   0  0  0  0  0  0  0  0  0  0  0  0
   -0.8639    9.4545   -3.2948 C   0  0  0  0  0  0  0  0  0  0  0  0
   -0.0827   10.4261   -3.8753 C   0  0  0  0  0  0  0  0  0  0  0  0
    1.1239   10.8225   -3.2904 C   0  0  0  0  0  0  0  0  0  0  0  0
    4.1443    8.4877   -1.6334 C   0  0  0  0  0  0  0  0  0  0  0  0
    4.1616    7.6588   -2.6213 O   0  0  0  0  0  0  0  0  0  0  0  0
    4.2038    7.9753   -0.3021 N   0  0  0  0  0  0  0  0  0  0  0  0
    4.1893    8.6754    0.9819 C   0  0  0  0  0  0  0  0  0  0  0  0
    5.1476    7.9165    1.8889 C   0  0  0  0  0  0  0  0  0  0  0  0
    5.3041    6.5779    1.2245 C   0  0  0  0  0  0  0  0  0  0  0  0
    4.3247    6.5577    0.0471 C   0  0  1  0  0  0  0  0  0  0  0  0
    3.0595    5.9936    0.5601 C   0  0  0  0  0  0  0  0  0  0  0  0
    1.9977    6.6707    0.7667 O   0  0  0  0  0  0  0  0  0  0  0  0
    2.9141    4.5717    0.8827 N   0  0  0  0  0  0  0  0  0  0  0  0
    1.5983    4.2103    1.3658 C   0  0  0  0  0  0  0  0  0  0  0  0
    1.4422    2.7530    1.6848 C   0  0  0  0  0  0  0  0  0  0  0  0
    2.4072    1.9644    1.5434 O   0  0  0  0  0  0  0  0  0  0  0  0
    0.1404    2.3623    2.1424 N   0  0  0  0  0  0  0  0  0  0  0  0
   -0.2640    1.0273    2.5036 C   0  0  1  0  0  0  0  0  0  0  0  0
   -0.5220    0.8913    4.0064 C   0  0  0  0  0  0  0  0  0  0  0  0
   -1.6019    1.7898    4.5340 C   0  0  0  0  0  0  0  0  0  0  0  0
   -1.7210    1.5293    6.0279 C   0  0  0  0  0  0  0  0  0  0  0  0
   -2.6755    2.3228    6.7797 N   0  0  0  0  0  0  0  0  0  0  0  0
   -1.0133    0.6504    6.6044 O   0  0  0  0  0  0  0  0  0  0  0  0
   -1.2854    0.3963    1.6597 C   0  0  0  0  0  0  0  0  0  0  0  0
   -1.8219   -0.6897    2.1048 O   0  0  0  0  0  0  0  0  0  0  0  0
   -1.7688    0.8338    0.3868 N   0  0  0  0  0  0  0  0  0  0  0  0
   -2.8733    0.0826   -0.2784 C   0  0  0  0  0  0  0  0  0  0  0  0
   -3.0481    0.7550   -1.6205 C   0  0  0  0  0  0  0  0  0  0  0  0
   -1.6856    1.3865   -1.8852 C   0  0  0  0  0  0  0  0  0  0  0  0
   -1.3471    1.9030   -0.4768 C   0  0  1  0  0  0  0  0  0  0  0  0
   -2.0067    3.2352   -0.2634 C   0  0  0  0  0  0  0  0  0  0  0  0
   -1.4010    4.1922   -0.8886 O   0  0  0  0  0  0  0  0  0  0  0  0
   -3.1512    3.3978    0.5328 N   0  0  0  0  0  0  0  0  0  0  0  0
   -3.9058    4.6011    0.8457 C   0  0  1  0  0  0  0  0  0  0  0  0
   -3.4264    5.1227    2.1760 C   0  0  0  0  0  0  0  0  0  0  0  0
   -3.9953    6.3446    2.7183 C   0  0  0  0  0  0  0  0  0  0  0  0
   -3.2659    7.5433    2.5125 C   0  0  0  0  0  0  0  0  0  0  0  0
   -3.7324    8.7576    2.9970 C   0  0  0  0  0  0  0  0  0  0  0  0
   -4.9443    8.7696    3.6955 C   0  0  0  0  0  0  0  0  0  0  0  0
   -5.6733    7.5790    3.9032 C   0  0  0  0  0  0  0  0  0  0  0  0
   -5.2068    6.3582    3.4178 C   0  0  0  0  0  0  0  0  0  0  0  0
   -3.8899    5.5689   -0.2684 C   0  0  0  0  0  0  0  0  0  0  0  0
   -3.2893    5.4478   -1.3773 O   0  0  0  0  0  0  0  0  0  0  0  0
   -4.6154    6.8513   -0.1860 N   0  0  0  0  0  0  0  0  0  0  0  0
   -4.4283    7.6882   -1.3895 C   0  0  0  0  0  0  0  0  0  0  0  0
   -5.1480    8.9752   -1.1456 C   0  0  0  0  0  0  0  0  0  0  0  0
   -5.8151    9.1214   -0.0869 O   0  0  0  0  0  0  0  0  0  0  0  0
   -5.0321   10.0166   -2.1464 N   0  0  0  0  0  0  0  0  0  0  0  0
   -5.7045   11.2543   -1.8913 C   0  0  1  0  0  0  0  0  0  0  0  0
   -4.8368   12.0757   -0.8581 C   0  0  0  0  0  0  0  0  0  0  0  0
   -3.4615   12.3383   -1.4082 C   0  0  0  0  0  0  0  0  0  0  0  0
   -2.6718   13.1056   -0.3793 C   0  0  0  0  0  0  0  0  0  0  0  0
   -1.3059   13.4720   -0.5929 N   0  0  0  0  0  0  0  0  0  0  0  0
   -3.1904   13.4591    0.7264 O   0  0  0  0  0  0  0  0  0  0  0  0
   -6.0655   12.1420   -2.9770 C   0  0  0  0  0  0  0  0  0  0  0  0
   -6.6154   13.2761   -2.6158 O   0  0  0  0  0  0  0  0  0  0  0  0
   -5.9046   11.9637   -4.3865 N   0  0  0  0  0  0  0  0  0  0  0  0
   -5.4130   10.7968   -5.1236 C   0  0  0  0  0  0  0  0  0  0  0  0
   -5.8039   11.0147   -6.5896 C   0  0  0  0  0  0  0  0  0  0  0  0
   -5.7731   12.5114   -6.7213 C   0  0  0  0  0  0  0  0  0  0  0  0
   -6.1696   13.0306   -5.3493 C   0  0  1  0  0  0  0  0  0  0  0  0
   -7.6091   13.4560   -5.3976 C   0  0  0  0  0  0  0  0  0  0  0  0
   -8.5461   12.8232   -4.8533 O   0  0  0  0  0  0  0  0  0  0  0  0
   -7.8633   14.6770   -6.1308 N   0  0  0  0  0  0  0  0  0  0  0  0
   -9.2165   15.1906   -6.3034 C   0  0  0  0  0  0  0  0  0  0  0  0
   -9.1631   16.3506   -7.2541 C   0  0  0  0  0  0  0  0  0  0  0  0
   -7.7475   16.3671   -7.7609 C   0  0  0  0  0  0  0  0  0  0  0  0
   -6.9340   15.5906   -6.7651 C   0  0  1  0  0  0  0  0  0  0  0  0
   -6.3871   16.5601   -5.7436 C   0  0  0  0  0  0  0  0  0  0  0  0
   -5.4291   17.3372   -6.0002 O   0  0  0  0  0  0  0  0  0  0  0  0
   -6.9919   16.5719   -4.4614 O   0  0  0  0  0  0  0  0  0  0  0  0
  1  2  1  0
  2  3  1  0
  2  4  1  0
  5  4  1  1
  5  6  1  0
  6  7  1  0
  7  8  2  0
  7  9  1  0
  9 10  1  6
 10 11  1  0
 11 12  2  0
 13 11  1  1
 13 14  1  0
 14 15  1  0
 15 16  1  0
 16 17  1  0
  9 18  1  0
 18 19  1  0
 18 20  1  0
  5 21  1  0
 21 22  2  0
 21 23  1  0
 23 24  1  0
 24 25  1  6
 25 26  1  0
 26 27  2  0
 27 28  1  0
 28 29  2  0
 29 30  1  0
 30 31  2  0
 24 32  1  0
 32 33  2  0
 32 34  1  0
 34 35  1  0
 35 36  1  0
 36 37  1  0
 37 38  1  0
 38 39  1  1
 39 40  2  0
 39 41  1  0
 41 42  1  0
 42 43  1  0
 43 44  2  0
 43 45  1  0
 45 46  1  0
 46 47  1  1
 47 48  1  0
 48 49  1  0
 49 50  1  0
 49 51  2  0
 46 52  1  0
 52 53  2  0
 52 54  1  0
 54 55  1  0
 55 56  1  0
 56 57  1  0
 57 58  1  0
 58 59  1  1
 59 60  2  0
 59 61  1  0
 61 62  1  0
 62 63  1  1
 63 64  1  0
 64 65  2  0
 65 66  1  0
 66 67  2  0
 67 68  1  0
 68 69  2  0
 62 70  1  0
 70 71  2  0
 70 72  1  0
 72 73  1  0
 73 74  1  0
 74 75  2  0
 74 76  1  0
 76 77  1  0
 77 78  1  1
 78 79  1  0
 79 80  1  0
 80 81  1  0
 80 82  2  0
 77 83  1  0
 83 84  2  0
 83 85  1  0
 85 86  1  0
 86 87  1  0
 87 88  1  0
 88 89  1  0
 89 90  1  6
 90 91  2  0
 90 92  1  0
 92 93  1  0
 93 94  1  0
 94 95  1  0
 95 96  1  0
 96 97  1  1
 97 98  2  0
 97 99  1  0
 17 13  1  0
 31 26  1  0
 38 34  1  0
 58 54  1  0
 69 64  1  0
 89 85  1  0
 96 92  1  0
M  CHG  2  17   1  99  -1
M  END
>  <shape_align_shape_tanimoto>  (2) 
0.29733669034778087

>  <shape_align_color_tanimoto>  (2) 
0.046678478258429849

>  <metric>  (2) 
color

>  <metric_score>  (2) 
0.047

>  <template_pid>  (2) 
4WYM

>  <template_shape_score>  (2) 
0.297

>  <template_color_score>  (2) 
0.047

>  <template_combo_score>  (2) 
0.172

$$$$
4WYM_combo_pose
     RDKit          3D

 99105  0  0  0  0  0  0  0  0999 V2000
   -0.0299   13.0566   -0.1330 C   0  0  0  0  0  0  0  0  0  0  0  0
    0.8208   12.7534   -1.3418 C   0  0  0  0  0  0  0  0  0  0  0  0
    2.1553   12.2220   -0.7819 C   0  0  0  0  0  0  0  0  0  0  0  0
    0.2674   11.7370   -2.2877 C   0  0  0  0  0  0  0  0  0  0  0  0
   -1.0406   12.0517   -2.9290 C   0  0  2  0  0  0  0  0  0  0  0  0
   -2.0905   12.2034   -1.9577 N   0  0  0  0  0  0  0  0  0  0  0  0
   -2.9882   13.2683   -2.0672 C   0  0  0  0  0  0  0  0  0  0  0  0
   -2.8013   14.0555   -3.0865 O   0  0  0  0  0  0  0  0  0  0  0  0
   -4.1161   13.6358   -1.2031 C   0  0  1  0  0  0  0  0  0  0  0  0
   -4.8628   14.7457   -1.8297 N   0  0  0  0  0  0  0  0  0  0  0  0
   -4.8537   16.0705   -1.3128 C   0  0  0  0  0  0  0  0  0  0  0  0
   -4.1670   16.2904   -0.2599 O   0  0  0  0  0  0  0  0  0  0  0  0
   -5.6275   17.1114   -2.0080 C   0  0  2  0  0  0  0  0  0  0  0  0
   -5.3298   17.2727   -3.4664 C   0  0  0  0  0  0  0  0  0  0  0  0
   -4.8840   18.7255   -3.6157 C   0  0  0  0  0  0  0  0  0  0  0  0
   -4.6046   19.1990   -2.1894 C   0  0  0  0  0  0  0  0  0  0  0  0
   -5.5148   18.4117   -1.4103 N   0  0  0  0  0  0  0  0  0  0  0  0
   -5.0126   12.5726   -0.6865 C   0  0  0  0  0  0  0  0  0  0  0  0
   -4.3675   11.5255    0.1876 C   0  0  0  0  0  0  0  0  0  0  0  0
   -5.8895   11.9205   -1.7715 C   0  0  0  0  0  0  0  0  0  0  0  0
   -1.3462   11.0267   -3.9895 C   0  0  0  0  0  0  0  0  0  0  0  0
   -0.4425   10.7932   -4.8361 O   0  0  0  0  0  0  0  0  0  0  0  0
   -2.6253   10.3523   -4.0321 N   0  0  0  0  0  0  0  0  0  0  0  0
   -3.0036    9.4049   -5.0320 C   0  0  1  0  0  0  0  0  0  0  0  0
   -3.4210   10.0120   -6.3650 C   0  0  0  0  0  0  0  0  0  0  0  0
   -2.4206   10.8265   -7.0474 C   0  0  0  0  0  0  0  0  0  0  0  0
   -2.4145   12.2251   -6.8712 C   0  0  0  0  0  0  0  0  0  0  0  0
   -1.4701   13.0076   -7.5135 C   0  0  0  0  0  0  0  0  0  0  0  0
   -0.5269   12.4114   -8.3319 C   0  0  0  0  0  0  0  0  0  0  0  0
   -0.5060   11.0366   -8.5253 C   0  0  0  0  0  0  0  0  0  0  0  0
   -1.4567   10.2654   -7.8781 C   0  0  0  0  0  0  0  0  0  0  0  0
   -2.3322    8.1279   -5.1711 C   0  0  0  0  0  0  0  0  0  0  0  0
   -2.6386    7.5117   -6.3069 O   0  0  0  0  0  0  0  0  0  0  0  0
   -1.4387    7.4075   -4.3691 N   0  0  0  0  0  0  0  0  0  0  0  0
   -0.8605    7.6123   -3.0570 C   0  0  0  0  0  0  0  0  0  0  0  0
    0.5380    7.0401   -3.1010 C   0  0  0  0  0  0  0  0  0  0  0  0
    0.5716    6.2289   -4.3629 C   0  0  0  0  0  0  0  0  0  0  0  0
   -0.8515    6.1195   -4.7999 C   0  0  1  0  0  0  0  0  0  0  0  0
   -1.4979    4.9523   -4.1509 C   0  0  0  0  0  0  0  0  0  0  0  0
   -2.4668    5.0381   -3.3529 O   0  0  0  0  0  0  0  0  0  0  0  0
   -0.9472    3.6578   -4.4897 N   0  0  0  0  0  0  0  0  0  0  0  0
   -1.4274    2.4136   -3.9879 C   0  0  0  0  0  0  0  0  0  0  0  0
   -1.3356    2.2187   -2.4983 C   0  0  0  0  0  0  0  0  0  0  0  0
   -1.8388    1.0809   -2.1350 O   0  0  0  0  0  0  0  0  0  0  0  0
   -0.7761    3.1460   -1.6120 N   0  0  0  0  0  0  0  0  0  0  0  0
   -0.6541    3.1046   -0.1878 C   0  0  1  0  0  0  0  0  0  0  0  0
   -1.5968    2.0504    0.4020 C   0  0  0  0  0  0  0  0  0  0  0  0
   -3.0148    2.4718    0.0990 C   0  0  0  0  0  0  0  0  0  0  0  0
   -4.0382    1.4856    0.5362 C   0  0  0  0  0  0  0  0  0  0  0  0
   -5.4380    1.7487    0.3225 N   0  0  0  0  0  0  0  0  0  0  0  0
   -3.7701    0.3896    1.1022 O   0  0  0  0  0  0  0  0  0  0  0  0
    0.6463    3.1104    0.4103 C   0  0  0  0  0  0  0  0  0  0  0  0
    0.7038    3.2149    1.7098 O   0  0  0  0  0  0  0  0  0  0  0  0
    1.9247    3.0198   -0.2064 N   0  0  0  0  0  0  0  0  0  0  0  0
    2.1882    2.8309   -1.6380 C   0  0  0  0  0  0  0  0  0  0  0  0
    3.5781    2.2500   -1.7743 C   0  0  0  0  0  0  0  0  0  0  0  0
    4.1078    2.1500   -0.3835 C   0  0  0  0  0  0  0  0  0  0  0  0
    3.2550    3.1172    0.3937 C   0  0  1  0  0  0  0  0  0  0  0  0
    3.8217    4.4918    0.1940 C   0  0  0  0  0  0  0  0  0  0  0  0
    5.0392    4.7615    0.4385 O   0  0  0  0  0  0  0  0  0  0  0  0
    2.9561    5.4972   -0.2831 N   0  0  0  0  0  0  0  0  0  0  0  0
    3.2413    6.8622   -0.5821 C   0  0  1  0  0  0  0  0  0  0  0  0
    3.9132    7.5971    0.5680 C   0  0  0  0  0  0  0  0  0  0  0  0
    3.1238    7.6359    1.8053 C   0  0  0  0  0  0  0  0  0  0  0  0
    3.2381    6.6662    2.7989 C   0  0  0  0  0  0  0  0  0  0  0  0
    2.4788    6.7075    3.9640 C   0  0  0  0  0  0  0  0  0  0  0  0
    1.5528    7.7368    4.1971 C   0  0  0  0  0  0  0  0  0  0  0  0
    1.4459    8.6936    3.2083 C   0  0  0  0  0  0  0  0  0  0  0  0
    2.2013    8.6544    2.0475 C   0  0  0  0  0  0  0  0  0  0  0  0
    4.2240    6.8353   -1.7270 C   0  0  0  0  0  0  0  0  0  0  0  0
    4.9876    5.8582   -1.9433 O   0  0  0  0  0  0  0  0  0  0  0  0
    4.3145    7.9577   -2.6441 N   0  0  0  0  0  0  0  0  0  0  0  0
    5.2798    7.8477   -3.6874 C   0  0  0  0  0  0  0  0  0  0  0  0
    5.2433    8.9063   -4.7212 C   0  0  0  0  0  0  0  0  0  0  0  0
    6.1648    8.8198   -5.6169 O   0  0  0  0  0  0  0  0  0  0  0  0
    4.2603    9.9483   -4.7514 N   0  0  0  0  0  0  0  0  0  0  0  0
    4.2495   10.9530   -5.8606 C   0  0  1  0  0  0  0  0  0  0  0  0
    5.4957   11.7910   -5.7848 C   0  0  0  0  0  0  0  0  0  0  0  0
    5.5545   12.5445   -4.4402 C   0  0  0  0  0  0  0  0  0  0  0  0
    6.7741   13.3776   -4.3475 C   0  0  0  0  0  0  0  0  0  0  0  0
    6.9249   14.2046   -3.1934 N   0  0  0  0  0  0  0  0  0  0  0  0
    7.6742   13.3760   -5.2495 O   0  0  0  0  0  0  0  0  0  0  0  0
    4.0895   10.2219   -7.1334 C   0  0  0  0  0  0  0  0  0  0  0  0
    4.1094    8.9381   -7.0211 O   0  0  0  0  0  0  0  0  0  0  0  0
    3.9213   10.7365   -8.4216 N   0  0  0  0  0  0  0  0  0  0  0  0
    3.8053   12.1331   -8.9046 C   0  0  0  0  0  0  0  0  0  0  0  0
    4.9249   12.1241   -9.9612 C   0  0  0  0  0  0  0  0  0  0  0  0
    5.0985   10.6256  -10.3502 C   0  0  0  0  0  0  0  0  0  0  0  0
    3.8734   10.0180   -9.7266 C   0  0  1  0  0  0  0  0  0  0  0  0
    3.7232    8.5916   -9.6533 C   0  0  0  0  0  0  0  0  0  0  0  0
    2.7733    8.1576   -8.8777 O   0  0  0  0  0  0  0  0  0  0  0  0
    4.4576    7.5612  -10.2984 N   0  0  0  0  0  0  0  0  0  0  0  0
    5.5616    7.5874  -11.2348 C   0  0  0  0  0  0  0  0  0  0  0  0
    6.4669    6.4422  -10.7800 C   0  0  0  0  0  0  0  0  0  0  0  0
    5.6725    5.7195   -9.7031 C   0  0  0  0  0  0  0  0  0  0  0  0
    4.2329    6.1103  -10.1114 C   0  0  1  0  0  0  0  0  0  0  0  0
    3.3056    5.7812   -9.0314 C   0  0  0  0  0  0  0  0  0  0  0  0
    2.0562    5.6606   -9.1324 O   0  0  0  0  0  0  0  0  0  0  0  0
    3.8337    5.5737   -7.7430 O   0  0  0  0  0  0  0  0  0  0  0  0
  1  2  1  0
  2  3  1  0
  2  4  1  0
  5  4  1  1
  5  6  1  0
  6  7  1  0
  7  8  2  0
  7  9  1  0
  9 10  1  6
 10 11  1  0
 11 12  2  0
 13 11  1  1
 13 14  1  0
 14 15  1  0
 15 16  1  0
 16 17  1  0
  9 18  1  0
 18 19  1  0
 18 20  1  0
  5 21  1  0
 21 22  2  0
 21 23  1  0
 23 24  1  0
 24 25  1  6
 25 26  1  0
 26 27  2  0
 27 28  1  0
 28 29  2  0
 29 30  1  0
 30 31  2  0
 24 32  1  0
 32 33  2  0
 32 34  1  0
 34 35  1  0
 35 36  1  0
 36 37  1  0
 37 38  1  0
 38 39  1  1
 39 40  2  0
 39 41  1  0
 41 42  1  0
 42 43  1  0
 43 44  2  0
 43 45  1  0
 45 46  1  0
 46 47  1  6
 47 48  1  0
 48 49  1  0
 49 50  1  0
 49 51  2  0
 46 52  1  0
 52 53  2  0
 52 54  1  0
 54 55  1  0
 55 56  1  0
 56 57  1  0
 57 58  1  0
 58 59  1  6
 59 60  2  0
 59 61  1  0
 61 62  1  0
 62 63  1  1
 63 64  1  0
 64 65  2  0
 65 66  1  0
 66 67  2  0
 67 68  1  0
 68 69  2  0
 62 70  1  0
 70 71  2  0
 70 72  1  0
 72 73  1  0
 73 74  1  0
 74 75  2  0
 74 76  1  0
 76 77  1  0
 77 78  1  6
 78 79  1  0
 79 80  1  0
 80 81  1  0
 80 82  2  0
 77 83  1  0
 83 84  2  0
 83 85  1  0
 85 86  1  0
 86 87  1  0
 87 88  1  0
 88 89  1  0
 89 90  1  1
 90 91  2  0
 90 92  1  0
 92 93  1  0
 93 94  1  0
 94 95  1  0
 95 96  1  0
 96 97  1  1
 97 98  2  0
 97 99  1  0
 17 13  1  0
 31 26  1  0
 38 34  1  0
 58 54  1  0
 69 64  1  0
 89 85  1  0
 96 92  1  0
M  CHG  2  17   1  99  -1
M  END
>  <shape_align_shape_tanimoto>  (3) 
0.36750876195971505

>  <shape_align_color_tanimoto>  (3) 
0.017160614912305548

>  <metric>  (3) 
combo

>  <metric_score>  (3) 
0.192

>  <template_pid>  (3) 
4WYM

>  <template_shape_score>  (3) 
0.368

>  <template_color_score>  (3) 
0.017

>  <template_combo_score>  (3) 
0.192

$$$$
