4MZ4_shape_pose
     RDKit          3D

 35 39  0  0  0  0  0  0  0  0999 V2000
  -25.6263   -9.9163   36.4696 N   0  0  0  0  0  0  0  0  0  0  0  0
  -25.0665  -10.3625   35.2195 C   0  0  0  0  0  0  0  0  0  0  0  0
  -25.8290  -10.2645   34.0523 C   0  0  0  0  0  0  0  0  0  0  0  0
  -25.3035  -10.6929   32.8238 C   0  0  0  0  0  0  0  0  0  0  0  0
  -26.1332  -10.5716   31.6024 C   0  0  0  0  0  0  0  0  0  0  0  0
  -25.8445   -9.3707   30.8483 N   0  0  0  0  0  0  0  0  0  0  0  0
  -24.9845   -9.2556   29.8236 C   0  0  0  0  0  0  0  0  0  0  0  0
  -24.1915  -10.2535   29.1314 C   0  0  0  0  0  0  0  0  0  0  0  0
  -23.4153   -9.9238   28.1713 O   0  0  0  0  0  0  0  0  0  0  0  0
  -24.2011  -11.6070   29.4300 O   0  0  0  0  0  0  0  0  0  0  0  0
  -24.9863   -7.9142   29.4261 C   0  0  0  0  0  0  0  0  0  0  0  0
  -24.2211   -7.3208   28.3714 N   0  0  0  0  0  0  0  0  0  0  0  0
  -23.0511   -6.7348   28.6399 C   0  0  0  0  0  0  0  0  0  0  0  0
  -22.6277   -6.7086   29.8255 O   0  0  0  0  0  0  0  0  0  0  0  0
  -22.3352   -6.1807   27.6588 N   0  0  0  0  0  0  0  0  0  0  0  0
  -22.7582   -6.1860   26.3518 C   0  0  0  0  0  0  0  0  0  0  0  0
  -22.0390   -5.6202   25.3125 C   0  0  0  0  0  0  0  0  0  0  0  0
  -23.0849   -5.9281   23.8078 S   0  0  0  0  0  0  0  0  0  0  0  0
  -24.3222   -6.7537   24.7294 C   0  0  0  0  0  0  0  0  0  0  0  0
  -23.9112   -6.7591   26.0617 C   0  0  0  0  0  0  0  0  0  0  0  0
  -24.6529   -7.3387   27.1100 C   0  0  0  0  0  0  0  0  0  0  0  0
  -25.7591   -7.8997   26.8975 O   0  0  0  0  0  0  0  0  0  0  0  0
  -25.8484   -7.2173   30.2079 C   0  0  0  0  0  0  0  0  0  0  0  0
  -26.2149   -5.8869   30.2255 C   0  0  0  0  0  0  0  0  0  0  0  0
  -27.1287   -5.4163   31.1273 C   0  0  0  0  0  0  0  0  0  0  0  0
  -27.4870   -3.9788   31.1036 C   0  0  0  0  0  0  0  0  0  0  0  0
  -26.3447   -3.2039   30.9093 F   0  0  0  0  0  0  0  0  0  0  0  0
  -28.4641   -3.6906   30.1717 F   0  0  0  0  0  0  0  0  0  0  0  0
  -27.9823   -3.6145   32.3387 F   0  0  0  0  0  0  0  0  0  0  0  0
  -27.6747   -6.3101   32.0201 C   0  0  0  0  0  0  0  0  0  0  0  0
  -27.3013   -7.6491   31.9973 C   0  0  0  0  0  0  0  0  0  0  0  0
  -26.3879   -8.1448   31.1043 C   0  0  0  0  0  0  0  0  0  0  0  0
  -24.0326  -11.1936   32.8707 C   0  0  0  0  0  0  0  0  0  0  0  0
  -23.2990  -11.2775   34.0532 C   0  0  0  0  0  0  0  0  0  0  0  0
  -23.8203  -10.8627   35.2129 N   0  0  0  0  0  0  0  0  0  0  0  0
  1  2  1  0
  2  3  2  0
  3  4  1  0
  4  5  1  0
  5  6  1  0
  6  7  1  0
  7  8  1  0
  8  9  2  0
  8 10  1  0
  7 11  2  0
 11 12  1  0
 12 13  1  0
 13 14  2  0
 13 15  1  0
 15 16  1  0
 16 17  2  0
 17 18  1  0
 18 19  1  0
 19 20  2  0
 20 21  1  0
 21 22  2  0
 11 23  1  0
 23 24  2  0
 24 25  1  0
 25 26  1  0
 26 27  1  0
 26 28  1  0
 26 29  1  0
 25 30  2  0
 30 31  1  0
 31 32  2  0
  4 33  2  0
 33 34  1  0
 34 35  2  0
 35  2  1  0
 32  6  1  0
 21 12  1  0
 32 23  1  0
 20 16  1  0
M  CHG  1  10  -1
M  END
>  <shape_align_shape_tanimoto>  (1) 
0.5995398356291054

>  <shape_align_color_tanimoto>  (1) 
0.045196316176719389

>  <metric>  (1) 
shape

>  <metric_score>  (1) 
0.600

>  <template_pid>  (1) 
4MZ4

>  <template_shape_score>  (1) 
0.600

>  <template_color_score>  (1) 
0.045

>  <template_combo_score>  (1) 
0.322

$$$$
4MZ4_color_pose
     RDKit          3D

 35 39  0  0  0  0  0  0  0  0999 V2000
  -22.0922   -6.6540   23.7985 N   0  0  0  0  0  0  0  0  0  0  0  0
  -23.2701   -6.9544   24.5721 C   0  0  0  0  0  0  0  0  0  0  0  0
  -23.5311   -6.2489   25.7488 C   0  0  0  0  0  0  0  0  0  0  0  0
  -24.6627   -6.5229   26.5115 C   0  0  0  0  0  0  0  0  0  0  0  0
  -24.8990   -5.7554   27.7551 C   0  0  0  0  0  0  0  0  0  0  0  0
  -24.4390   -6.4143   28.9576 N   0  0  0  0  0  0  0  0  0  0  0  0
  -25.1755   -7.1924   29.7693 C   0  0  0  0  0  0  0  0  0  0  0  0
  -26.5914   -7.5126   29.7426 C   0  0  0  0  0  0  0  0  0  0  0  0
  -27.1148   -8.2954   30.6112 O   0  0  0  0  0  0  0  0  0  0  0  0
  -27.4844   -7.0132   28.8041 O   0  0  0  0  0  0  0  0  0  0  0  0
  -24.3416   -7.6711   30.7895 C   0  0  0  0  0  0  0  0  0  0  0  0
  -24.6680   -8.5225   31.8682 N   0  0  0  0  0  0  0  0  0  0  0  0
  -25.3101   -8.0226   32.9284 C   0  0  0  0  0  0  0  0  0  0  0  0
  -25.6051   -6.7984   32.9299 O   0  0  0  0  0  0  0  0  0  0  0  0
  -25.6348   -8.7963   33.9659 N   0  0  0  0  0  0  0  0  0  0  0  0
  -25.3277  -10.1417   33.9989 C   0  0  0  0  0  0  0  0  0  0  0  0
  -25.6694  -10.9479   35.0869 C   0  0  0  0  0  0  0  0  0  0  0  0
  -25.0343  -12.6119   34.6094 S   0  0  0  0  0  0  0  0  0  0  0  0
  -24.3688  -12.0401   32.9781 C   0  0  0  0  0  0  0  0  0  0  0  0
  -24.6975  -10.6557   32.9698 C   0  0  0  0  0  0  0  0  0  0  0  0
  -24.3630   -9.8275   31.8859 C   0  0  0  0  0  0  0  0  0  0  0  0
  -23.7593  -10.2762   30.8785 O   0  0  0  0  0  0  0  0  0  0  0  0
  -23.0778   -7.1633   30.5812 C   0  0  0  0  0  0  0  0  0  0  0  0
  -21.8919   -7.3092   31.2784 C   0  0  0  0  0  0  0  0  0  0  0  0
  -20.7541   -6.6847   30.8598 C   0  0  0  0  0  0  0  0  0  0  0  0
  -19.4520   -6.8153   31.5831 C   0  0  0  0  0  0  0  0  0  0  0  0
  -18.8147   -5.5826   31.6773 F   0  0  0  0  0  0  0  0  0  0  0  0
  -19.6139   -7.4196   32.8147 F   0  0  0  0  0  0  0  0  0  0  0  0
  -18.6111   -7.6409   30.8518 F   0  0  0  0  0  0  0  0  0  0  0  0
  -20.8045   -5.9092   29.7358 C   0  0  0  0  0  0  0  0  0  0  0  0
  -21.9936   -5.7666   29.0418 C   0  0  0  0  0  0  0  0  0  0  0  0
  -23.1664   -6.3809   29.4307 C   0  0  0  0  0  0  0  0  0  0  0  0
  -25.4827   -7.5147   26.0306 C   0  0  0  0  0  0  0  0  0  0  0  0
  -25.2009   -8.2083   24.8484 C   0  0  0  0  0  0  0  0  0  0  0  0
  -24.0933   -7.9198   24.1290 N   0  0  0  0  0  0  0  0  0  0  0  0
  1  2  1  0
  2  3  2  0
  3  4  1  0
  4  5  1  0
  5  6  1  0
  6  7  1  0
  7  8  1  0
  8  9  2  0
  8 10  1  0
  7 11  2  0
 11 12  1  0
 12 13  1  0
 13 14  2  0
 13 15  1  0
 15 16  1  0
 16 17  2  0
 17 18  1  0
 18 19  1  0
 19 20  2  0
 20 21  1  0
 21 22  2  0
 11 23  1  0
 23 24  2  0
 24 25  1  0
 25 26  1  0
 26 27  1  0
 26 28  1  0
 26 29  1  0
 25 30  2  0
 30 31  1  0
 31 32  2  0
  4 33  2  0
 33 34  1  0
 34 35  2  0
 35  2  1  0
 32  6  1  0
 21 12  1  0
 32 23  1  0
 20 16  1  0
M  CHG  1  10  -1
M  END
>  <shape_align_shape_tanimoto>  (2) 
0.48237610807820974

>  <shape_align_color_tanimoto>  (2) 
0.13072784152780115

>  <metric>  (2) 
color

>  <metric_score>  (2) 
0.131

>  <template_pid>  (2) 
4MZ4

>  <template_shape_score>  (2) 
0.482

>  <template_color_score>  (2) 
0.131

>  <template_combo_score>  (2) 
0.307

$$$$
4MZ4_combo_pose
     RDKit          3D

 35 39  0  0  0  0  0  0  0  0999 V2000
  -23.2299   -3.8687   25.3393 N   0  0  0  0  0  0  0  0  0  0  0  0
  -23.3860   -5.2838   25.4183 C   0  0  0  0  0  0  0  0  0  0  0  0
  -24.4923   -5.8461   26.0292 C   0  0  0  0  0  0  0  0  0  0  0  0
  -24.6879   -7.2151   26.1306 C   0  0  0  0  0  0  0  0  0  0  0  0
  -25.8844   -7.8142   26.7719 C   0  0  0  0  0  0  0  0  0  0  0  0
  -25.8328   -7.8092   28.2103 N   0  0  0  0  0  0  0  0  0  0  0  0
  -25.3414   -8.7319   29.0531 C   0  0  0  0  0  0  0  0  0  0  0  0
  -24.7692  -10.0302   28.7364 C   0  0  0  0  0  0  0  0  0  0  0  0
  -24.6558  -10.4942   27.5773 O   0  0  0  0  0  0  0  0  0  0  0  0
  -24.2908  -10.8719   29.7603 O   0  0  0  0  0  0  0  0  0  0  0  0
  -25.4857   -8.3011   30.3741 C   0  0  0  0  0  0  0  0  0  0  0  0
  -25.0955   -8.9758   31.5659 N   0  0  0  0  0  0  0  0  0  0  0  0
  -23.7991   -9.0014   31.8769 C   0  0  0  0  0  0  0  0  0  0  0  0
  -22.9395   -8.4376   31.1266 O   0  0  0  0  0  0  0  0  0  0  0  0
  -23.3932   -9.6249   32.9879 N   0  0  0  0  0  0  0  0  0  0  0  0
  -24.2827  -10.2422   33.8202 C   0  0  0  0  0  0  0  0  0  0  0  0
  -23.9009  -10.9089   34.9973 C   0  0  0  0  0  0  0  0  0  0  0  0
  -25.4892  -11.5366   35.7017 S   0  0  0  0  0  0  0  0  0  0  0  0
  -26.4484  -10.8814   34.4239 C   0  0  0  0  0  0  0  0  0  0  0  0
  -25.5642  -10.2250   33.5262 C   0  0  0  0  0  0  0  0  0  0  0  0
  -25.9958   -9.5750   32.3661 C   0  0  0  0  0  0  0  0  0  0  0  0
  -27.1852   -9.5212   32.0311 O   0  0  0  0  0  0  0  0  0  0  0  0
  -26.0905   -7.0707   30.3189 C   0  0  0  0  0  0  0  0  0  0  0  0
  -26.4624   -6.2270   31.3447 C   0  0  0  0  0  0  0  0  0  0  0  0
  -27.0765   -5.0270   31.0523 C   0  0  0  0  0  0  0  0  0  0  0  0
  -27.4995   -4.0766   32.1149 C   0  0  0  0  0  0  0  0  0  0  0  0
  -27.1400   -4.5598   33.3501 F   0  0  0  0  0  0  0  0  0  0  0  0
  -28.8771   -3.8602   32.0688 F   0  0  0  0  0  0  0  0  0  0  0  0
  -26.9050   -2.8563   31.8533 F   0  0  0  0  0  0  0  0  0  0  0  0
  -27.3005   -4.7081   29.7327 C   0  0  0  0  0  0  0  0  0  0  0  0
  -26.9157   -5.5763   28.7159 C   0  0  0  0  0  0  0  0  0  0  0  0
  -26.2945   -6.7896   28.9877 C   0  0  0  0  0  0  0  0  0  0  0  0
  -23.6767   -7.9957   25.5644 C   0  0  0  0  0  0  0  0  0  0  0  0
  -22.5678   -7.4363   24.9523 C   0  0  0  0  0  0  0  0  0  0  0  0
  -22.4500   -6.0945   24.8944 N   0  0  0  0  0  0  0  0  0  0  0  0
  1  2  1  0
  2  3  2  0
  3  4  1  0
  4  5  1  0
  5  6  1  0
  6  7  1  0
  7  8  1  0
  8  9  2  0
  8 10  1  0
  7 11  2  0
 11 12  1  0
 12 13  1  0
 13 14  2  0
 13 15  1  0
 15 16  1  0
 16 17  2  0
 17 18  1  0
 18 19  1  0
 19 20  2  0
 20 21  1  0
 21 22  2  0
 11 23  1  0
 23 24  2  0
 24 25  1  0
 25 26  1  0
 26 27  1  0
 26 28  1  0
 26 29  1  0
 25 30  2  0
 30 31  1  0
 31 32  2  0
  4 33  2  0
 33 34  1  0
 34 35  2  0
 35  2  1  0
 32  6  1  0
 21 12  1  0
 32 23  1  0
 20 16  1  0
M  CHG  1  10  -1
M  END
>  <shape_align_shape_tanimoto>  (3) 
0.56479883983188706

>  <shape_align_color_tanimoto>  (3) 
0.091697973241841507

>  <metric>  (3) 
combo

>  <metric_score>  (3) 
0.328

>  <template_pid>  (3) 
4MZ4

>  <template_shape_score>  (3) 
0.565

>  <template_color_score>  (3) 
0.092

>  <template_combo_score>  (3) 
0.328

$$$$
