6QMR_shape_pose
     RDKit          3D

 28 30  0  0  0  0  0  0  0  0999 V2000
    8.5477   34.5904   30.1282 N   0  0  0  0  0  0  0  0  0  0  0  0
    8.8318   33.5382   29.1327 C   0  0  2  0  0  0  0  0  0  0  0  0
   10.0725   32.8680   29.6043 C   0  0  0  0  0  0  0  0  0  0  0  0
   10.5373   31.8334   28.8381 O   0  0  0  0  0  0  0  0  0  0  0  0
    8.9271   34.2372   27.8434 C   0  0  0  0  0  0  0  0  0  0  0  0
    9.9028   34.0461   26.9010 C   0  0  0  0  0  0  0  0  0  0  0  0
    9.9447   34.7293   25.7030 C   0  0  0  0  0  0  0  0  0  0  0  0
    8.9643   35.6591   25.4155 C   0  0  0  0  0  0  0  0  0  0  0  0
    7.9688   35.8712   26.3485 C   0  0  0  0  0  0  0  0  0  0  0  0
    6.8900   36.8426   26.1192 C   0  0  0  0  0  0  0  0  0  0  0  0
    5.6217   36.6441   26.6516 C   0  0  0  0  0  0  0  0  0  0  0  0
    4.6403   37.5922   26.4051 C   0  0  0  0  0  0  0  0  0  0  0  0
    4.9426   38.7069   25.6402 C   0  0  0  0  0  0  0  0  0  0  0  0
    6.1817   38.9293   25.1025 C   0  0  0  0  0  0  0  0  0  0  0  0
    6.5608   40.0926   24.2690 C   0  0  0  0  0  0  0  0  0  0  0  0
    6.5357   39.9513   22.9226 O   0  0  0  0  0  0  0  0  0  0  0  0
    5.6254   39.6788   21.9911 C   0  0  0  0  0  0  0  0  0  0  0  0
    4.2727   39.4408   22.1629 C   0  0  0  0  0  0  0  0  0  0  0  0
    3.4166   39.1669   21.1150 C   0  0  0  0  0  0  0  0  0  0  0  0
    3.8726   39.1157   19.8211 C   0  0  0  0  0  0  0  0  0  0  0  0
    5.2146   39.3485   19.6165 C   0  0  0  0  0  0  0  0  0  0  0  0
    6.0540   39.6185   20.6581 C   0  0  0  0  0  0  0  0  0  0  0  0
    7.4910   39.8572   20.3399 C   0  0  0  0  0  0  0  0  0  0  0  0
    8.2912   38.6585   20.7019 C   0  0  0  0  0  0  0  0  0  0  0  0
    7.6493   37.6784   21.1976 O   0  0  0  0  0  0  0  0  0  0  0  0
    9.6519   38.6119   20.5111 O   0  0  0  0  0  0  0  0  0  0  0  0
    7.1558   37.9819   25.3513 C   0  0  0  0  0  0  0  0  0  0  0  0
    7.9452   35.1730   27.5476 C   0  0  0  0  0  0  0  0  0  0  0  0
  2  1  1  1
  2  3  1  0
  3  4  1  0
  2  5  1  0
  5  6  2  0
  6  7  1  0
  7  8  2  0
  8  9  1  0
  9 10  1  0
 10 11  2  0
 11 12  1  0
 12 13  2  0
 13 14  1  0
 14 15  1  0
 15 16  1  0
 16 17  1  0
 17 18  2  0
 18 19  1  0
 19 20  2  0
 20 21  1  0
 21 22  2  0
 22 23  1  0
 23 24  1  0
 24 25  2  0
 24 26  1  0
 14 27  2  0
  9 28  2  0
 28  5  1  0
 27 10  1  0
 22 17  1  0
M  CHG  2   1   1  26  -1
M  END
>  <shape_align_shape_tanimoto>  (1) 
0.56836071732775539

>  <shape_align_color_tanimoto>  (1) 
0.052102351975020111

>  <metric>  (1) 
shape

>  <metric_score>  (1) 
0.568

>  <template_pid>  (1) 
6QMR

>  <template_shape_score>  (1) 
0.568

>  <template_color_score>  (1) 
0.052

>  <template_combo_score>  (1) 
0.310

$$$$
6QMR_color_pose
     RDKit          3D

 28 30  0  0  0  0  0  0  0  0999 V2000
    7.5975   41.3982   20.8032 N   0  0  0  0  0  0  0  0  0  0  0  0
    7.1574   40.2637   21.6264 C   0  0  2  0  0  0  0  0  0  0  0  0
    8.2190   39.2596   21.7039 C   0  0  0  0  0  0  0  0  0  0  0  0
    9.3718   39.7354   22.3717 O   0  0  0  0  0  0  0  0  0  0  0  0
    5.8115   39.8366   21.2708 C   0  0  0  0  0  0  0  0  0  0  0  0
    5.3933   39.8639   19.9319 C   0  0  0  0  0  0  0  0  0  0  0  0
    4.1816   39.3771   19.5503 C   0  0  0  0  0  0  0  0  0  0  0  0
    3.3615   38.8255   20.5083 C   0  0  0  0  0  0  0  0  0  0  0  0
    3.7211   38.7539   21.8606 C   0  0  0  0  0  0  0  0  0  0  0  0
    2.8193   37.9803   22.7905 C   0  0  0  0  0  0  0  0  0  0  0  0
    1.6150   37.6149   22.5694 C   0  0  0  0  0  0  0  0  0  0  0  0
    0.6682   36.9466   23.3705 C   0  0  0  0  0  0  0  0  0  0  0  0
    1.2672   36.6757   24.6921 C   0  0  0  0  0  0  0  0  0  0  0  0
    2.4736   37.0303   24.9592 C   0  0  0  0  0  0  0  0  0  0  0  0
    3.3001   36.8146   26.2601 C   0  0  0  0  0  0  0  0  0  0  0  0
    4.4943   36.4561   25.9224 O   0  0  0  0  0  0  0  0  0  0  0  0
    5.6769   36.0967   25.5859 C   0  0  0  0  0  0  0  0  0  0  0  0
    6.2855   35.0321   24.9977 C   0  0  0  0  0  0  0  0  0  0  0  0
    7.5665   35.0566   24.7625 C   0  0  0  0  0  0  0  0  0  0  0  0
    8.5244   36.0039   25.0131 C   0  0  0  0  0  0  0  0  0  0  0  0
    7.9353   37.1482   25.6494 C   0  0  0  0  0  0  0  0  0  0  0  0
    6.5872   37.1632   25.9135 C   0  0  0  0  0  0  0  0  0  0  0  0
    6.0870   38.3723   26.6561 C   0  0  0  0  0  0  0  0  0  0  0  0
    5.6349   39.5442   25.9997 C   0  0  0  0  0  0  0  0  0  0  0  0
    6.3671   40.2679   25.3234 O   0  0  0  0  0  0  0  0  0  0  0  0
    4.2529   40.0205   26.0646 O   0  0  0  0  0  0  0  0  0  0  0  0
    3.3765   37.7042   24.0667 C   0  0  0  0  0  0  0  0  0  0  0  0
    4.8981   39.2366   22.2048 C   0  0  0  0  0  0  0  0  0  0  0  0
  2  1  1  6
  2  3  1  0
  3  4  1  0
  2  5  1  0
  5  6  2  0
  6  7  1  0
  7  8  2  0
  8  9  1  0
  9 10  1  0
 10 11  2  0
 11 12  1  0
 12 13  2  0
 13 14  1  0
 14 15  1  0
 15 16  1  0
 16 17  1  0
 17 18  2  0
 18 19  1  0
 19 20  2  0
 20 21  1  0
 21 22  2  0
 22 23  1  0
 23 24  1  0
 24 25  2  0
 24 26  1  0
 14 27  2  0
  9 28  2  0
 28  5  1  0
 27 10  1  0
 22 17  1  0
M  CHG  2   1   1  26  -1
M  END
>  <shape_align_shape_tanimoto>  (2) 
0.45384594985814891

>  <shape_align_color_tanimoto>  (2) 
0.10108875706870615

>  <metric>  (2) 
color

>  <metric_score>  (2) 
0.101

>  <template_pid>  (2) 
6QMR

>  <template_shape_score>  (2) 
0.454

>  <template_color_score>  (2) 
0.101

>  <template_combo_score>  (2) 
0.277

$$$$
6QMR_combo_pose
     RDKit          3D

 28 30  0  0  0  0  0  0  0  0999 V2000
    8.0086   32.5480   28.7439 N   0  0  0  0  0  0  0  0  0  0  0  0
    9.3127   33.1335   28.4852 C   0  0  2  0  0  0  0  0  0  0  0  0
    9.6177   34.0127   29.7044 C   0  0  0  0  0  0  0  0  0  0  0  0
    8.6566   34.9993   29.8541 O   0  0  0  0  0  0  0  0  0  0  0  0
    9.2243   34.0248   27.2901 C   0  0  0  0  0  0  0  0  0  0  0  0
   10.1770   34.0001   26.2936 C   0  0  0  0  0  0  0  0  0  0  0  0
   10.1055   34.8203   25.1884 C   0  0  0  0  0  0  0  0  0  0  0  0
    9.0330   35.6784   25.1131 C   0  0  0  0  0  0  0  0  0  0  0  0
    8.0430   35.7601   26.0680 C   0  0  0  0  0  0  0  0  0  0  0  0
    6.9196   36.6892   25.9552 C   0  0  0  0  0  0  0  0  0  0  0  0
    5.6671   36.4209   26.4638 C   0  0  0  0  0  0  0  0  0  0  0  0
    4.6543   37.3453   26.3248 C   0  0  0  0  0  0  0  0  0  0  0  0
    4.9462   38.5216   25.6691 C   0  0  0  0  0  0  0  0  0  0  0  0
    6.1760   38.8307   25.1472 C   0  0  0  0  0  0  0  0  0  0  0  0
    6.5080   40.0838   24.4315 C   0  0  0  0  0  0  0  0  0  0  0  0
    6.4568   39.9575   23.0732 O   0  0  0  0  0  0  0  0  0  0  0  0
    5.5477   39.6696   22.1312 C   0  0  0  0  0  0  0  0  0  0  0  0
    4.2156   39.3890   22.2806 C   0  0  0  0  0  0  0  0  0  0  0  0
    3.3612   39.1043   21.2270 C   0  0  0  0  0  0  0  0  0  0  0  0
    3.8466   39.0948   19.9411 C   0  0  0  0  0  0  0  0  0  0  0  0
    5.1788   39.3721   19.7483 C   0  0  0  0  0  0  0  0  0  0  0  0
    6.0134   39.6514   20.7944 C   0  0  0  0  0  0  0  0  0  0  0  0
    7.4616   39.9436   20.5250 C   0  0  0  0  0  0  0  0  0  0  0  0
    8.3070   38.7878   20.8645 C   0  0  0  0  0  0  0  0  0  0  0  0
    7.7770   37.7248   21.3205 O   0  0  0  0  0  0  0  0  0  0  0  0
    9.6816   38.7682   20.7206 O   0  0  0  0  0  0  0  0  0  0  0  0
    7.1737   37.8853   25.3010 C   0  0  0  0  0  0  0  0  0  0  0  0
    8.1757   34.9011   27.1626 C   0  0  0  0  0  0  0  0  0  0  0  0
  2  1  1  1
  2  3  1  0
  3  4  1  0
  2  5  1  0
  5  6  2  0
  6  7  1  0
  7  8  2  0
  8  9  1  0
  9 10  1  0
 10 11  2  0
 11 12  1  0
 12 13  2  0
 13 14  1  0
 14 15  1  0
 15 16  1  0
 16 17  1  0
 17 18  2  0
 18 19  1  0
 19 20  2  0
 20 21  1  0
 21 22  2  0
 22 23  1  0
 23 24  1  0
 24 25  2  0
 24 26  1  0
 14 27  2  0
  9 28  2  0
 28  5  1  0
 27 10  1  0
 22 17  1  0
M  CHG  2   1   1  26  -1
M  END
>  <shape_align_shape_tanimoto>  (3) 
0.54707211176607173

>  <shape_align_color_tanimoto>  (3) 
0.07699425032374059

>  <metric>  (3) 
combo

>  <metric_score>  (3) 
0.312

>  <template_pid>  (3) 
6QMR

>  <template_shape_score>  (3) 
0.547

>  <template_color_score>  (3) 
0.077

>  <template_combo_score>  (3) 
0.312

$$$$
