4DJP_shape_pose
     RDKit          3D

 39 40  0  0  0  0  0  0  0  0999 V2000
   73.4684   55.6382   12.7902 C   0  0  0  0  0  0  0  0  0  0  0  0
   72.9088   54.3216   13.2002 C   0  0  0  0  0  0  0  0  0  0  0  0
   72.9543   54.0245   14.6672 C   0  0  2  0  0  0  0  0  0  0  0  0
   72.3583   52.6555   14.8569 C   0  0  0  0  0  0  0  0  0  0  0  0
   72.4077   55.0852   15.5579 C   0  0  0  0  0  0  0  0  0  0  0  0
   71.0588   55.4595   15.4068 N   0  0  0  0  0  0  0  0  0  0  0  0
   70.8015   56.7410   14.8706 C   0  0  0  0  0  0  0  0  0  0  0  0
   71.4764   57.9188   15.4256 C   0  0  1  0  0  0  0  0  0  0  0  0
   71.1440   59.1232   14.7374 O   0  0  0  0  0  0  0  0  0  0  0  0
   71.2217   58.2631   16.8729 C   0  0  2  0  0  0  0  0  0  0  0  0
   69.8530   58.9762   16.9780 C   0  0  0  0  0  0  0  0  0  0  0  0
   69.5527   59.3642   18.3730 C   0  0  0  0  0  0  0  0  0  0  0  0
   69.9918   60.6081   18.8450 C   0  0  0  0  0  0  0  0  0  0  0  0
   69.7451   61.0351   20.1253 C   0  0  0  0  0  0  0  0  0  0  0  0
   69.0503   60.2370   20.9845 C   0  0  0  0  0  0  0  0  0  0  0  0
   68.6015   59.0193   20.5751 C   0  0  0  0  0  0  0  0  0  0  0  0
   68.8587   58.5991   19.2744 C   0  0  0  0  0  0  0  0  0  0  0  0
   72.1460   59.3480   17.2897 N   0  0  0  0  0  0  0  0  0  0  0  0
   72.9671   59.1844   18.4534 C   0  0  0  0  0  0  0  0  0  0  0  0
   72.8507   58.1059   19.0641 O   0  0  0  0  0  0  0  0  0  0  0  0
   73.7934   60.1929   18.7987 O   0  0  0  0  0  0  0  0  0  0  0  0
   74.6714   60.2813   19.8411 C   0  0  0  0  0  0  0  0  0  0  0  0
   75.8226   59.3372   19.8825 C   0  0  2  0  0  0  0  0  0  0  0  0
   76.6696   59.4912   18.6317 C   0  0  0  0  0  0  0  0  0  0  0  0
   75.4199   57.9678   20.1666 C   0  0  0  0  0  0  0  0  0  0  0  0
   75.6743   57.0625   19.3161 O   0  0  0  0  0  0  0  0  0  0  0  0
   74.7691   57.7028   21.3701 O   0  0  0  0  0  0  0  0  0  0  0  0
   74.3875   56.3755   21.6344 C   0  0  0  0  0  0  0  0  0  0  0  0
   69.9239   54.7836   16.4472 S   0  0  0  0  0  0  0  0  0  0  0  0
   69.0607   55.7404   17.1928 O   0  0  0  0  0  0  0  0  0  0  0  0
   70.6210   53.9505   17.4900 O   0  0  0  0  0  0  0  0  0  0  0  0
   68.8700   53.7060   15.5646 C   0  0  0  0  0  0  0  0  0  0  0  0
   69.0236   52.3456   15.5108 C   0  0  0  0  0  0  0  0  0  0  0  0
   68.1385   51.5871   14.7792 C   0  0  0  0  0  0  0  0  0  0  0  0
   67.0769   52.1251   14.0776 C   0  0  0  0  0  0  0  0  0  0  0  0
   66.2170   51.3126   13.3578 O   0  0  0  0  0  0  0  0  0  0  0  0
   65.1254   51.8475   12.6339 C   0  0  0  0  0  0  0  0  0  0  0  0
   66.9368   53.5032   14.1436 C   0  0  0  0  0  0  0  0  0  0  0  0
   67.8165   54.2816   14.8735 C   0  0  0  0  0  0  0  0  0  0  0  0
  1  2  1  0
  2  3  1  0
  3  4  1  6
  3  5  1  0
  5  6  1  0
  6  7  1  0
  7  8  1  0
  8  9  1  6
  8 10  1  0
 10 11  1  6
 11 12  1  0
 12 13  2  0
 13 14  1  0
 14 15  2  0
 15 16  1  0
 16 17  2  0
 10 18  1  0
 18 19  1  0
 19 20  2  0
 19 21  1  0
 21 22  1  0
 22 23  1  0
 23 24  1  6
 23 25  1  0
 25 26  2  0
 25 27  1  0
 27 28  1  0
  6 29  1  0
 29 30  2  0
 29 31  2  0
 29 32  1  0
 32 33  2  0
 33 34  1  0
 34 35  2  0
 35 36  1  0
 36 37  1  0
 35 38  1  0
 38 39  2  0
 17 12  1  0
 39 32  1  0
M  END
>  <shape_align_shape_tanimoto>  (1) 
0.68541986796196186

>  <shape_align_color_tanimoto>  (1) 
0.10564787996129066

>  <metric>  (1) 
shape

>  <metric_score>  (1) 
0.685

>  <template_pid>  (1) 
4DJP

>  <template_shape_score>  (1) 
0.685

>  <template_color_score>  (1) 
0.106

>  <template_combo_score>  (1) 
0.396

$$$$
4DJP_color_pose
     RDKit          3D

 39 40  0  0  0  0  0  0  0  0999 V2000
   66.6993   58.0796   12.3439 C   0  0  0  0  0  0  0  0  0  0  0  0
   68.0220   57.8753   11.7033 C   0  0  0  0  0  0  0  0  0  0  0  0
   68.7725   56.7292   12.3731 C   0  0  2  0  0  0  0  0  0  0  0  0
   67.8769   55.5228   12.1788 C   0  0  0  0  0  0  0  0  0  0  0  0
   69.0477   57.0248   13.7937 C   0  0  0  0  0  0  0  0  0  0  0  0
   69.7381   56.1691   14.6273 N   0  0  0  0  0  0  0  0  0  0  0  0
   71.1190   56.3290   14.8090 C   0  0  0  0  0  0  0  0  0  0  0  0
   71.7637   57.5220   15.3090 C   0  0  1  0  0  0  0  0  0  0  0  0
   71.6387   58.6868   14.5516 O   0  0  0  0  0  0  0  0  0  0  0  0
   71.5588   57.9585   16.7291 C   0  0  2  0  0  0  0  0  0  0  0  0
   70.2615   58.7682   16.7486 C   0  0  0  0  0  0  0  0  0  0  0  0
   69.9320   59.2756   18.1080 C   0  0  0  0  0  0  0  0  0  0  0  0
   70.3759   60.5366   18.5283 C   0  0  0  0  0  0  0  0  0  0  0  0
   70.0639   61.0165   19.8035 C   0  0  0  0  0  0  0  0  0  0  0  0
   69.3100   60.2290   20.6533 C   0  0  0  0  0  0  0  0  0  0  0  0
   68.8805   58.9964   20.2323 C   0  0  0  0  0  0  0  0  0  0  0  0
   69.1810   58.4993   18.9551 C   0  0  0  0  0  0  0  0  0  0  0  0
   72.6821   58.9004   16.9701 N   0  0  0  0  0  0  0  0  0  0  0  0
   73.3735   58.9314   18.2092 C   0  0  0  0  0  0  0  0  0  0  0  0
   73.0069   58.1520   19.1059 O   0  0  0  0  0  0  0  0  0  0  0  0
   74.4161   59.8352   18.3257 O   0  0  0  0  0  0  0  0  0  0  0  0
   75.1466   59.9291   19.5332 C   0  0  0  0  0  0  0  0  0  0  0  0
   74.1810   60.4263   20.6186 C   0  0  2  0  0  0  0  0  0  0  0  0
   73.6373   61.7849   20.2330 C   0  0  0  0  0  0  0  0  0  0  0  0
   74.8321   60.4807   21.9400 C   0  0  0  0  0  0  0  0  0  0  0  0
   76.0469   60.1734   22.1446 O   0  0  0  0  0  0  0  0  0  0  0  0
   74.0920   60.8880   23.0360 O   0  0  0  0  0  0  0  0  0  0  0  0
   74.5621   60.9887   24.3427 C   0  0  0  0  0  0  0  0  0  0  0  0
   69.0039   55.0917   15.6731 S   0  0  0  0  0  0  0  0  0  0  0  0
   70.1221   54.3908   16.4575 O   0  0  0  0  0  0  0  0  0  0  0  0
   68.1796   55.8099   16.7193 O   0  0  0  0  0  0  0  0  0  0  0  0
   68.0066   53.8344   15.0439 C   0  0  0  0  0  0  0  0  0  0  0  0
   66.6328   53.8132   15.0441 C   0  0  0  0  0  0  0  0  0  0  0  0
   65.8961   52.7682   14.5204 C   0  0  0  0  0  0  0  0  0  0  0  0
   66.5382   51.6571   13.9533 C   0  0  0  0  0  0  0  0  0  0  0  0
   65.7845   50.6198   13.4320 O   0  0  0  0  0  0  0  0  0  0  0  0
   66.3186   49.4708   12.8397 C   0  0  0  0  0  0  0  0  0  0  0  0
   67.9113   51.6829   13.9587 C   0  0  0  0  0  0  0  0  0  0  0  0
   68.6477   52.7205   14.4749 C   0  0  0  0  0  0  0  0  0  0  0  0
  1  2  1  0
  2  3  1  0
  3  4  1  1
  3  5  1  0
  5  6  1  0
  6  7  1  0
  7  8  1  0
  8  9  1  6
  8 10  1  0
 10 11  1  6
 11 12  1  0
 12 13  2  0
 13 14  1  0
 14 15  2  0
 15 16  1  0
 16 17  2  0
 10 18  1  0
 18 19  1  0
 19 20  2  0
 19 21  1  0
 21 22  1  0
 22 23  1  0
 23 24  1  6
 23 25  1  0
 25 26  2  0
 25 27  1  0
 27 28  1  0
  6 29  1  0
 29 30  2  0
 29 31  2  0
 29 32  1  0
 32 33  2  0
 33 34  1  0
 34 35  2  0
 35 36  1  0
 36 37  1  0
 35 38  1  0
 38 39  2  0
 17 12  1  0
 39 32  1  0
M  END
>  <shape_align_shape_tanimoto>  (2) 
0.56590524898003158

>  <shape_align_color_tanimoto>  (2) 
0.12216925162267624

>  <metric>  (2) 
color

>  <metric_score>  (2) 
0.122

>  <template_pid>  (2) 
4DJP

>  <template_shape_score>  (2) 
0.566

>  <template_color_score>  (2) 
0.122

>  <template_combo_score>  (2) 
0.344

$$$$
4DJP_combo_pose
     RDKit          3D

 39 40  0  0  0  0  0  0  0  0999 V2000
   73.4684   55.6382   12.7902 C   0  0  0  0  0  0  0  0  0  0  0  0
   72.9088   54.3216   13.2002 C   0  0  0  0  0  0  0  0  0  0  0  0
   72.9543   54.0245   14.6672 C   0  0  2  0  0  0  0  0  0  0  0  0
   72.3583   52.6555   14.8569 C   0  0  0  0  0  0  0  0  0  0  0  0
   72.4077   55.0852   15.5579 C   0  0  0  0  0  0  0  0  0  0  0  0
   71.0588   55.4595   15.4068 N   0  0  0  0  0  0  0  0  0  0  0  0
   70.8015   56.7410   14.8706 C   0  0  0  0  0  0  0  0  0  0  0  0
   71.4764   57.9188   15.4256 C   0  0  1  0  0  0  0  0  0  0  0  0
   71.1440   59.1232   14.7374 O   0  0  0  0  0  0  0  0  0  0  0  0
   71.2217   58.2631   16.8729 C   0  0  2  0  0  0  0  0  0  0  0  0
   69.8530   58.9762   16.9780 C   0  0  0  0  0  0  0  0  0  0  0  0
   69.5527   59.3642   18.3730 C   0  0  0  0  0  0  0  0  0  0  0  0
   69.9918   60.6081   18.8450 C   0  0  0  0  0  0  0  0  0  0  0  0
   69.7451   61.0351   20.1253 C   0  0  0  0  0  0  0  0  0  0  0  0
   69.0503   60.2370   20.9845 C   0  0  0  0  0  0  0  0  0  0  0  0
   68.6015   59.0193   20.5751 C   0  0  0  0  0  0  0  0  0  0  0  0
   68.8587   58.5991   19.2744 C   0  0  0  0  0  0  0  0  0  0  0  0
   72.1460   59.3480   17.2897 N   0  0  0  0  0  0  0  0  0  0  0  0
   72.9671   59.1844   18.4534 C   0  0  0  0  0  0  0  0  0  0  0  0
   72.8507   58.1059   19.0641 O   0  0  0  0  0  0  0  0  0  0  0  0
   73.7934   60.1929   18.7987 O   0  0  0  0  0  0  0  0  0  0  0  0
   74.6714   60.2813   19.8411 C   0  0  0  0  0  0  0  0  0  0  0  0
   75.8226   59.3372   19.8825 C   0  0  2  0  0  0  0  0  0  0  0  0
   76.6696   59.4912   18.6317 C   0  0  0  0  0  0  0  0  0  0  0  0
   75.4199   57.9678   20.1666 C   0  0  0  0  0  0  0  0  0  0  0  0
   75.6743   57.0625   19.3161 O   0  0  0  0  0  0  0  0  0  0  0  0
   74.7691   57.7028   21.3701 O   0  0  0  0  0  0  0  0  0  0  0  0
   74.3875   56.3755   21.6344 C   0  0  0  0  0  0  0  0  0  0  0  0
   69.9239   54.7836   16.4472 S   0  0  0  0  0  0  0  0  0  0  0  0
   69.0607   55.7404   17.1928 O   0  0  0  0  0  0  0  0  0  0  0  0
   70.6210   53.9505   17.4900 O   0  0  0  0  0  0  0  0  0  0  0  0
   68.8700   53.7060   15.5646 C   0  0  0  0  0  0  0  0  0  0  0  0
   69.0236   52.3456   15.5108 C   0  0  0  0  0  0  0  0  0  0  0  0
   68.1385   51.5871   14.7792 C   0  0  0  0  0  0  0  0  0  0  0  0
   67.0769   52.1251   14.0776 C   0  0  0  0  0  0  0  0  0  0  0  0
   66.2170   51.3126   13.3578 O   0  0  0  0  0  0  0  0  0  0  0  0
   65.1254   51.8475   12.6339 C   0  0  0  0  0  0  0  0  0  0  0  0
   66.9368   53.5032   14.1436 C   0  0  0  0  0  0  0  0  0  0  0  0
   67.8165   54.2816   14.8735 C   0  0  0  0  0  0  0  0  0  0  0  0
  1  2  1  0
  2  3  1  0
  3  4  1  6
  3  5  1  0
  5  6  1  0
  6  7  1  0
  7  8  1  0
  8  9  1  6
  8 10  1  0
 10 11  1  6
 11 12  1  0
 12 13  2  0
 13 14  1  0
 14 15  2  0
 15 16  1  0
 16 17  2  0
 10 18  1  0
 18 19  1  0
 19 20  2  0
 19 21  1  0
 21 22  1  0
 22 23  1  0
 23 24  1  6
 23 25  1  0
 25 26  2  0
 25 27  1  0
 27 28  1  0
  6 29  1  0
 29 30  2  0
 29 31  2  0
 29 32  1  0
 32 33  2  0
 33 34  1  0
 34 35  2  0
 35 36  1  0
 36 37  1  0
 35 38  1  0
 38 39  2  0
 17 12  1  0
 39 32  1  0
M  END
>  <shape_align_shape_tanimoto>  (3) 
0.68541986796196186

>  <shape_align_color_tanimoto>  (3) 
0.10564787996129066

>  <metric>  (3) 
combo

>  <metric_score>  (3) 
0.396

>  <template_pid>  (3) 
4DJP

>  <template_shape_score>  (3) 
0.685

>  <template_color_score>  (3) 
0.106

>  <template_combo_score>  (3) 
0.396

$$$$
