4Z9L_shape_pose
     RDKit          3D

 35 39  0  0  0  0  0  0  0  0999 V2000
  -15.4925    8.8918   38.6911 C   0  0  0  0  0  0  0  0  0  0  0  0
  -16.2318    9.3502   39.9506 C   0  0  0  0  0  0  0  0  0  0  0  0
  -17.2877   10.3068   39.5156 C   0  0  0  0  0  0  0  0  0  0  0  0
  -18.1082   10.8663   40.5325 N   0  0  0  0  0  0  0  0  0  0  0  0
  -19.2865   10.3743   41.0271 C   0  0  0  0  0  0  0  0  0  0  0  0
  -20.0175    9.1622   40.7068 C   0  0  0  0  0  0  0  0  0  0  0  0
  -19.5907    7.9899   41.6047 C   0  0  0  0  0  0  0  0  0  0  0  0
  -20.3884    6.7572   41.2967 C   0  0  0  0  0  0  0  0  0  0  0  0
  -20.7353    6.5631   39.9344 N   0  0  0  0  0  0  0  0  0  0  0  0
  -21.2617    7.7305   39.2525 C   0  0  0  0  0  0  0  0  0  0  0  0
  -20.1051    8.7540   39.2816 C   0  0  0  0  0  0  0  0  0  0  0  0
  -19.7101   11.2698   41.9771 N   0  0  0  0  0  0  0  0  0  0  0  0
  -18.8619   12.2664   42.0842 C   0  0  0  0  0  0  0  0  0  0  0  0
  -18.9687   13.4106   42.9833 C   0  0  0  0  0  0  0  0  0  0  0  0
  -18.0190   13.6558   43.9467 C   0  0  0  0  0  0  0  0  0  0  0  0
  -18.1571   14.7438   44.7726 C   0  0  0  0  0  0  0  0  0  0  0  0
  -19.2227   15.6301   44.6901 C   0  0  0  0  0  0  0  0  0  0  0  0
  -19.3676   17.0119   45.7625 Cl  0  0  0  0  0  0  0  0  0  0  0  0
  -20.1694   15.3665   43.7135 C   0  0  0  0  0  0  0  0  0  0  0  0
  -21.5291   16.4509   43.5692 Cl  0  0  0  0  0  0  0  0  0  0  0  0
  -20.0436   14.2718   42.8721 C   0  0  0  0  0  0  0  0  0  0  0  0
  -17.8485   12.0374   41.1897 C   0  0  0  0  0  0  0  0  0  0  0  0
  -16.7144   12.9353   41.0205 C   0  0  0  0  0  0  0  0  0  0  0  0
  -16.9533   14.2265   40.5564 C   0  0  0  0  0  0  0  0  0  0  0  0
  -15.8419   15.0397   40.4174 C   0  0  0  0  0  0  0  0  0  0  0  0
  -14.5938   14.6304   40.7070 N   0  0  0  0  0  0  0  0  0  0  0  0
  -14.4042   13.3759   41.1527 C   0  0  0  0  0  0  0  0  0  0  0  0
  -13.1101   12.9062   41.4674 N   0  0  0  0  0  0  0  0  0  0  0  0
  -11.9140   13.7021   41.3438 C   0  0  0  0  0  0  0  0  0  0  0  0
  -11.9489   14.9549   42.1998 C   0  0  0  0  0  0  0  0  0  0  0  0
  -10.6839   15.7466   42.0111 C   0  0  0  0  0  0  0  0  0  0  0  0
   -9.7403   15.1039   41.0133 C   0  0  0  0  0  0  0  0  0  0  0  0
  -10.4544   14.8756   39.6933 C   0  0  0  0  0  0  0  0  0  0  0  0
  -11.6974   14.0364   39.8980 C   0  0  0  0  0  0  0  0  0  0  0  0
  -15.4571   12.5579   41.3003 N   0  0  0  0  0  0  0  0  0  0  0  0
  1  2  1  0
  2  3  1  0
  3  4  1  0
  4  5  1  0
  5  6  1  0
  6  7  1  0
  7  8  1  0
  8  9  1  0
  9 10  1  0
 10 11  1  0
  5 12  2  0
 12 13  1  0
 13 14  1  0
 14 15  2  0
 15 16  1  0
 16 17  2  0
 17 18  1  0
 17 19  1  0
 19 20  1  0
 19 21  2  0
 13 22  2  0
 22 23  1  0
 23 24  2  0
 24 25  1  0
 25 26  2  0
 26 27  1  0
 27 28  1  0
 28 29  1  0
 29 30  1  0
 30 31  1  0
 31 32  1  0
 32 33  1  0
 33 34  1  0
 27 35  2  0
 22  4  1  0
 35 23  1  0
 11  6  1  0
 21 14  1  0
 34 29  1  0
M  CHG  1   9   1
M  END
>  <shape_align_shape_tanimoto>  (1) 
0.61600647556965504

>  <shape_align_color_tanimoto>  (1) 
0.054471002434080623

>  <metric>  (1) 
shape

>  <metric_score>  (1) 
0.616

>  <template_pid>  (1) 
4Z9L

>  <template_shape_score>  (1) 
0.616

>  <template_color_score>  (1) 
0.054

>  <template_combo_score>  (1) 
0.335

$$$$
4Z9L_color_pose
     RDKit          3D

 35 39  0  0  0  0  0  0  0  0999 V2000
  -14.5265   16.4603   38.7213 C   0  0  0  0  0  0  0  0  0  0  0  0
  -15.2392   15.1489   38.6391 C   0  0  0  0  0  0  0  0  0  0  0  0
  -14.3499   13.9505   38.9586 C   0  0  0  0  0  0  0  0  0  0  0  0
  -13.7967   14.0015   40.2893 N   0  0  0  0  0  0  0  0  0  0  0  0
  -12.6560   14.5636   40.7164 C   0  0  0  0  0  0  0  0  0  0  0  0
  -11.6052   15.3141   40.0571 C   0  0  0  0  0  0  0  0  0  0  0  0
  -11.0878   14.8910   38.7448 C   0  0  0  0  0  0  0  0  0  0  0  0
  -10.3351   13.5815   38.7837 C   0  0  0  0  0  0  0  0  0  0  0  0
   -9.3353   13.5895   39.8399 N   0  0  0  0  0  0  0  0  0  0  0  0
   -9.9112   13.9361   41.1382 C   0  0  0  0  0  0  0  0  0  0  0  0
  -10.3955   15.3644   41.0430 C   0  0  0  0  0  0  0  0  0  0  0  0
  -12.6326   14.3127   42.0686 N   0  0  0  0  0  0  0  0  0  0  0  0
  -13.7057   13.6286   42.4614 C   0  0  0  0  0  0  0  0  0  0  0  0
  -13.9313   13.2369   43.8498 C   0  0  0  0  0  0  0  0  0  0  0  0
  -15.0077   13.7996   44.5011 C   0  0  0  0  0  0  0  0  0  0  0  0
  -15.2678   13.4713   45.8169 C   0  0  0  0  0  0  0  0  0  0  0  0
  -14.4626   12.5919   46.4751 C   0  0  0  0  0  0  0  0  0  0  0  0
  -14.7100   12.1121   48.1489 Cl  0  0  0  0  0  0  0  0  0  0  0  0
  -13.3905   12.0358   45.8165 C   0  0  0  0  0  0  0  0  0  0  0  0
  -12.3103   10.8876   46.6201 Cl  0  0  0  0  0  0  0  0  0  0  0  0
  -13.0917   12.3403   44.4852 C   0  0  0  0  0  0  0  0  0  0  0  0
  -14.4606   13.4200   41.3416 C   0  0  0  0  0  0  0  0  0  0  0  0
  -15.7306   12.7137   41.2685 C   0  0  0  0  0  0  0  0  0  0  0  0
  -15.7135   11.4802   40.6323 C   0  0  0  0  0  0  0  0  0  0  0  0
  -16.8799   10.7758   40.5042 C   0  0  0  0  0  0  0  0  0  0  0  0
  -18.0258   11.2713   40.9876 N   0  0  0  0  0  0  0  0  0  0  0  0
  -18.0489   12.4689   41.6070 C   0  0  0  0  0  0  0  0  0  0  0  0
  -19.2948   12.9611   42.0795 N   0  0  0  0  0  0  0  0  0  0  0  0
  -19.4516   14.2072   42.7952 C   0  0  0  0  0  0  0  0  0  0  0  0
  -20.9367   14.5265   43.0299 C   0  0  0  0  0  0  0  0  0  0  0  0
  -20.9480   15.9684   43.5121 C   0  0  0  0  0  0  0  0  0  0  0  0
  -20.2766   16.0314   44.8644 C   0  0  0  0  0  0  0  0  0  0  0  0
  -18.8931   15.4113   44.8553 C   0  0  0  0  0  0  0  0  0  0  0  0
  -18.8739   14.0690   44.2029 C   0  0  0  0  0  0  0  0  0  0  0  0
  -16.8928   13.1865   41.7443 N   0  0  0  0  0  0  0  0  0  0  0  0
  1  2  1  0
  2  3  1  0
  3  4  1  0
  4  5  1  0
  5  6  1  0
  6  7  1  0
  7  8  1  0
  8  9  1  0
  9 10  1  0
 10 11  1  0
  5 12  2  0
 12 13  1  0
 13 14  1  0
 14 15  2  0
 15 16  1  0
 16 17  2  0
 17 18  1  0
 17 19  1  0
 19 20  1  0
 19 21  2  0
 13 22  2  0
 22 23  1  0
 23 24  2  0
 24 25  1  0
 25 26  2  0
 26 27  1  0
 27 28  1  0
 28 29  1  0
 29 30  1  0
 30 31  1  0
 31 32  1  0
 32 33  1  0
 33 34  1  0
 27 35  2  0
 22  4  1  0
 35 23  1  0
 11  6  1  0
 21 14  1  0
 34 29  1  0
M  CHG  1   9   1
M  END
>  <shape_align_shape_tanimoto>  (2) 
0.52444034051567578

>  <shape_align_color_tanimoto>  (2) 
0.07805979018953528

>  <metric>  (2) 
color

>  <metric_score>  (2) 
0.078

>  <template_pid>  (2) 
4Z9L

>  <template_shape_score>  (2) 
0.524

>  <template_color_score>  (2) 
0.078

>  <template_combo_score>  (2) 
0.301

$$$$
4Z9L_combo_pose
     RDKit          3D

 35 39  0  0  0  0  0  0  0  0999 V2000
  -15.4925    8.8918   38.6911 C   0  0  0  0  0  0  0  0  0  0  0  0
  -16.2318    9.3502   39.9506 C   0  0  0  0  0  0  0  0  0  0  0  0
  -17.2877   10.3068   39.5156 C   0  0  0  0  0  0  0  0  0  0  0  0
  -18.1082   10.8663   40.5325 N   0  0  0  0  0  0  0  0  0  0  0  0
  -19.2865   10.3743   41.0271 C   0  0  0  0  0  0  0  0  0  0  0  0
  -20.0175    9.1622   40.7068 C   0  0  0  0  0  0  0  0  0  0  0  0
  -19.5907    7.9899   41.6047 C   0  0  0  0  0  0  0  0  0  0  0  0
  -20.3884    6.7572   41.2967 C   0  0  0  0  0  0  0  0  0  0  0  0
  -20.7353    6.5631   39.9344 N   0  0  0  0  0  0  0  0  0  0  0  0
  -21.2617    7.7305   39.2525 C   0  0  0  0  0  0  0  0  0  0  0  0
  -20.1051    8.7540   39.2816 C   0  0  0  0  0  0  0  0  0  0  0  0
  -19.7101   11.2698   41.9771 N   0  0  0  0  0  0  0  0  0  0  0  0
  -18.8619   12.2664   42.0842 C   0  0  0  0  0  0  0  0  0  0  0  0
  -18.9687   13.4106   42.9833 C   0  0  0  0  0  0  0  0  0  0  0  0
  -18.0190   13.6558   43.9467 C   0  0  0  0  0  0  0  0  0  0  0  0
  -18.1571   14.7438   44.7726 C   0  0  0  0  0  0  0  0  0  0  0  0
  -19.2227   15.6301   44.6901 C   0  0  0  0  0  0  0  0  0  0  0  0
  -19.3676   17.0119   45.7625 Cl  0  0  0  0  0  0  0  0  0  0  0  0
  -20.1694   15.3665   43.7135 C   0  0  0  0  0  0  0  0  0  0  0  0
  -21.5291   16.4509   43.5692 Cl  0  0  0  0  0  0  0  0  0  0  0  0
  -20.0436   14.2718   42.8721 C   0  0  0  0  0  0  0  0  0  0  0  0
  -17.8485   12.0374   41.1897 C   0  0  0  0  0  0  0  0  0  0  0  0
  -16.7144   12.9353   41.0205 C   0  0  0  0  0  0  0  0  0  0  0  0
  -16.9533   14.2265   40.5564 C   0  0  0  0  0  0  0  0  0  0  0  0
  -15.8419   15.0397   40.4174 C   0  0  0  0  0  0  0  0  0  0  0  0
  -14.5938   14.6304   40.7070 N   0  0  0  0  0  0  0  0  0  0  0  0
  -14.4042   13.3759   41.1527 C   0  0  0  0  0  0  0  0  0  0  0  0
  -13.1101   12.9062   41.4674 N   0  0  0  0  0  0  0  0  0  0  0  0
  -11.9140   13.7021   41.3438 C   0  0  0  0  0  0  0  0  0  0  0  0
  -11.9489   14.9549   42.1998 C   0  0  0  0  0  0  0  0  0  0  0  0
  -10.6839   15.7466   42.0111 C   0  0  0  0  0  0  0  0  0  0  0  0
   -9.7403   15.1039   41.0133 C   0  0  0  0  0  0  0  0  0  0  0  0
  -10.4544   14.8756   39.6933 C   0  0  0  0  0  0  0  0  0  0  0  0
  -11.6974   14.0364   39.8980 C   0  0  0  0  0  0  0  0  0  0  0  0
  -15.4571   12.5579   41.3003 N   0  0  0  0  0  0  0  0  0  0  0  0
  1  2  1  0
  2  3  1  0
  3  4  1  0
  4  5  1  0
  5  6  1  0
  6  7  1  0
  7  8  1  0
  8  9  1  0
  9 10  1  0
 10 11  1  0
  5 12  2  0
 12 13  1  0
 13 14  1  0
 14 15  2  0
 15 16  1  0
 16 17  2  0
 17 18  1  0
 17 19  1  0
 19 20  1  0
 19 21  2  0
 13 22  2  0
 22 23  1  0
 23 24  2  0
 24 25  1  0
 25 26  2  0
 26 27  1  0
 27 28  1  0
 28 29  1  0
 29 30  1  0
 30 31  1  0
 31 32  1  0
 32 33  1  0
 33 34  1  0
 27 35  2  0
 22  4  1  0
 35 23  1  0
 11  6  1  0
 21 14  1  0
 34 29  1  0
M  CHG  1   9   1
M  END
>  <shape_align_shape_tanimoto>  (3) 
0.61600647556965504

>  <shape_align_color_tanimoto>  (3) 
0.054471002434080623

>  <metric>  (3) 
combo

>  <metric_score>  (3) 
0.335

>  <template_pid>  (3) 
4Z9L

>  <template_shape_score>  (3) 
0.616

>  <template_color_score>  (3) 
0.054

>  <template_combo_score>  (3) 
0.335

$$$$
