6JSE_shape_pose
     RDKit          3D

 33 36  0  0  0  0  0  0  0  0999 V2000
   32.1910   52.0710   76.0420 C   0  0  0  0  0  0  0  0  0  0  0  0
   32.1020   50.5484   75.8809 C   0  0  2  0  0  0  0  0  0  0  0  0
   30.6909   50.1657   76.1125 C   0  0  0  0  0  0  0  0  0  0  0  0
   30.4144   49.3576   77.1924 C   0  0  0  0  0  0  0  0  0  0  0  0
   29.1617   48.9096   77.5313 C   0  0  0  0  0  0  0  0  0  0  0  0
   29.0070   48.0965   78.6750 N   0  0  0  0  0  0  0  0  0  0  0  0
   27.8094   47.5291   79.1449 C   0  0  0  0  0  0  0  0  0  0  0  0
   26.7289   47.6805   78.5883 O   0  0  0  0  0  0  0  0  0  0  0  0
   27.8128   46.7027   80.3692 C   0  0  0  0  0  0  0  0  0  0  0  0
   26.6378   46.1566   80.8309 C   0  0  0  0  0  0  0  0  0  0  0  0
   26.6774   45.4087   81.9570 N   0  0  0  0  0  0  0  0  0  0  0  0
   27.8456   45.1888   82.6329 C   0  0  0  0  0  0  0  0  0  0  0  0
   27.8268   44.4554   83.7255 O   0  0  0  0  0  0  0  0  0  0  0  0
   27.2936   43.7175   84.6553 C   0  0  0  0  0  0  0  0  0  0  0  0
   26.2876   44.3396   85.3964 F   0  0  0  0  0  0  0  0  0  0  0  0
   29.0386   45.7492   82.1543 C   0  0  0  0  0  0  0  0  0  0  0  0
   28.9840   46.4844   81.0419 N   0  0  0  0  0  0  0  0  0  0  0  0
   28.1222   49.3115   76.7166 C   0  0  0  0  0  0  0  0  0  0  0  0
   28.3413   50.1335   75.6064 C   0  0  0  0  0  0  0  0  0  0  0  0
   29.6331   50.5469   75.3252 C   0  0  0  0  0  0  0  0  0  0  0  0
   29.7715   51.3655   74.2606 F   0  0  0  0  0  0  0  0  0  0  0  0
   32.9681   50.0023   76.9034 N   0  0  0  0  0  0  0  0  0  0  0  0
   33.4774   48.6883   76.9242 C   0  0  0  0  0  0  0  0  0  0  0  0
   33.8051   48.0811   78.0411 N   0  0  0  0  0  0  0  0  0  0  0  0
   33.6742   47.8492   75.3590 S   0  0  0  0  0  0  0  0  0  0  0  0
   32.7741   48.8091   74.1455 C   0  0  0  0  0  0  0  0  0  0  0  0
   32.5057   50.2245   74.5044 C   0  0  2  0  0  0  0  0  0  0  0  0
   33.6436   51.0625   74.0008 C   0  0  0  0  0  0  0  0  0  0  0  0
   33.4054   52.0449   73.0338 C   0  0  0  0  0  0  0  0  0  0  0  0
   34.4395   52.8585   72.5578 C   0  0  0  0  0  0  0  0  0  0  0  0
   35.7072   52.7055   73.0310 C   0  0  0  0  0  0  0  0  0  0  0  0
   35.9490   51.7381   73.9851 C   0  0  0  0  0  0  0  0  0  0  0  0
   34.9264   50.9347   74.4551 C   0  0  0  0  0  0  0  0  0  0  0  0
  2  1  1  6
  2  3  1  0
  3  4  2  0
  4  5  1  0
  5  6  1  0
  6  7  1  0
  7  8  2  0
  7  9  1  0
  9 10  2  0
 10 11  1  0
 11 12  2  0
 12 13  1  0
 13 14  1  0
 14 15  1  0
 12 16  1  0
 16 17  2  0
  5 18  2  0
 18 19  1  0
 19 20  2  0
 20 21  1  0
  2 22  1  0
 22 23  1  0
 23 24  2  0
 23 25  1  0
 25 26  1  0
 26 27  1  0
 27 28  1  1
 28 29  2  0
 29 30  1  0
 30 31  2  0
 31 32  1  0
 32 33  2  0
 27  2  1  0
 33 28  1  0
 20  3  1  0
 17  9  1  0
M  CHG  1  24   1
M  END
>  <shape_align_shape_tanimoto>  (1) 
0.6985429595182755

>  <shape_align_color_tanimoto>  (1) 
0.080908082522917243

>  <metric>  (1) 
shape

>  <metric_score>  (1) 
0.699

>  <template_pid>  (1) 
6JSE

>  <template_shape_score>  (1) 
0.699

>  <template_color_score>  (1) 
0.081

>  <template_combo_score>  (1) 
0.390

$$$$
6JSE_color_pose
     RDKit          3D

 33 36  0  0  0  0  0  0  0  0999 V2000
   29.7740   47.1786   79.5778 C   0  0  0  0  0  0  0  0  0  0  0  0
   28.3015   47.4984   79.3859 C   0  0  2  0  0  0  0  0  0  0  0  0
   28.1910   48.5778   78.3844 C   0  0  0  0  0  0  0  0  0  0  0  0
   29.2616   49.0289   77.6240 C   0  0  0  0  0  0  0  0  0  0  0  0
   29.1590   50.0184   76.6803 C   0  0  0  0  0  0  0  0  0  0  0  0
   30.2185   50.5083   75.8864 N   0  0  0  0  0  0  0  0  0  0  0  0
   31.5532   50.0822   75.9145 C   0  0  0  0  0  0  0  0  0  0  0  0
   31.9864   49.1911   76.6652 O   0  0  0  0  0  0  0  0  0  0  0  0
   32.5410   50.7083   75.0082 C   0  0  0  0  0  0  0  0  0  0  0  0
   33.8654   50.3261   74.9969 C   0  0  0  0  0  0  0  0  0  0  0  0
   34.7577   50.9091   74.1618 N   0  0  0  0  0  0  0  0  0  0  0  0
   34.3668   51.8881   73.3121 C   0  0  0  0  0  0  0  0  0  0  0  0
   35.2838   52.4912   72.4500 O   0  0  0  0  0  0  0  0  0  0  0  0
   36.6474   52.0459   72.4893 C   0  0  0  0  0  0  0  0  0  0  0  0
   36.6010   50.6832   72.1663 F   0  0  0  0  0  0  0  0  0  0  0  0
   33.0326   52.2807   73.3159 C   0  0  0  0  0  0  0  0  0  0  0  0
   32.1655   51.6835   74.1577 N   0  0  0  0  0  0  0  0  0  0  0  0
   27.9117   50.5777   76.4984 C   0  0  0  0  0  0  0  0  0  0  0  0
   26.8429   50.1385   77.2473 C   0  0  0  0  0  0  0  0  0  0  0  0
   26.9475   49.1440   78.1960 C   0  0  0  0  0  0  0  0  0  0  0  0
   25.8452   48.8136   78.8787 F   0  0  0  0  0  0  0  0  0  0  0  0
   27.8493   48.1242   80.6461 N   0  0  0  0  0  0  0  0  0  0  0  0
   27.4073   47.1860   81.6339 C   0  0  0  0  0  0  0  0  0  0  0  0
   26.6161   47.6051   82.5655 N   0  0  0  0  0  0  0  0  0  0  0  0
   27.9216   45.4724   81.6053 S   0  0  0  0  0  0  0  0  0  0  0  0
   28.0711   45.0669   79.8398 C   0  0  0  0  0  0  0  0  0  0  0  0
   27.5493   46.2678   79.0820 C   0  0  2  0  0  0  0  0  0  0  0  0
   27.4313   46.0419   77.6243 C   0  0  0  0  0  0  0  0  0  0  0  0
   28.4563   45.5834   76.8255 C   0  0  0  0  0  0  0  0  0  0  0  0
   28.3132   45.3847   75.4543 C   0  0  0  0  0  0  0  0  0  0  0  0
   27.1320   45.6383   74.8292 C   0  0  0  0  0  0  0  0  0  0  0  0
   26.0842   46.0972   75.5966 C   0  0  0  0  0  0  0  0  0  0  0  0
   26.2260   46.2938   76.9532 C   0  0  0  0  0  0  0  0  0  0  0  0
  2  1  1  1
  2  3  1  0
  3  4  2  0
  4  5  1  0
  5  6  1  0
  6  7  1  0
  7  8  2  0
  7  9  1  0
  9 10  2  0
 10 11  1  0
 11 12  2  0
 12 13  1  0
 13 14  1  0
 14 15  1  0
 12 16  1  0
 16 17  2  0
  5 18  2  0
 18 19  1  0
 19 20  2  0
 20 21  1  0
  2 22  1  0
 22 23  1  0
 23 24  2  0
 23 25  1  0
 25 26  1  0
 26 27  1  0
 27 28  1  6
 28 29  2  0
 29 30  1  0
 30 31  2  0
 31 32  1  0
 32 33  2  0
 27  2  1  0
 33 28  1  0
 20  3  1  0
 17  9  1  0
M  CHG  1  24   1
M  END
>  <shape_align_shape_tanimoto>  (2) 
0.56994673359003034

>  <shape_align_color_tanimoto>  (2) 
0.12578984213411534

>  <metric>  (2) 
color

>  <metric_score>  (2) 
0.126

>  <template_pid>  (2) 
6JSE

>  <template_shape_score>  (2) 
0.570

>  <template_color_score>  (2) 
0.126

>  <template_combo_score>  (2) 
0.348

$$$$
6JSE_combo_pose
     RDKit          3D

 33 36  0  0  0  0  0  0  0  0999 V2000
   32.1656   52.1168   75.9899 C   0  0  0  0  0  0  0  0  0  0  0  0
   32.0460   50.5858   75.9086 C   0  0  2  0  0  0  0  0  0  0  0  0
   30.6387   50.1842   76.1443 C   0  0  0  0  0  0  0  0  0  0  0  0
   30.3708   49.3772   77.2175 C   0  0  0  0  0  0  0  0  0  0  0  0
   29.1055   48.9088   77.5421 C   0  0  0  0  0  0  0  0  0  0  0  0
   28.9715   48.0816   78.6800 N   0  0  0  0  0  0  0  0  0  0  0  0
   27.7704   47.5178   79.1578 C   0  0  0  0  0  0  0  0  0  0  0  0
   26.6773   47.6963   78.6113 O   0  0  0  0  0  0  0  0  0  0  0  0
   27.7821   46.6693   80.3652 C   0  0  0  0  0  0  0  0  0  0  0  0
   26.6342   46.0996   80.8666 C   0  0  0  0  0  0  0  0  0  0  0  0
   26.6573   45.3166   81.9843 N   0  0  0  0  0  0  0  0  0  0  0  0
   27.8152   45.0808   82.6293 C   0  0  0  0  0  0  0  0  0  0  0  0
   27.9085   44.2955   83.7692 O   0  0  0  0  0  0  0  0  0  0  0  0
   26.7072   43.7137   84.2735 C   0  0  0  0  0  0  0  0  0  0  0  0
   26.2028   42.9056   83.2703 F   0  0  0  0  0  0  0  0  0  0  0  0
   28.9473   45.6646   82.1038 C   0  0  0  0  0  0  0  0  0  0  0  0
   28.9401   46.4372   81.0050 N   0  0  0  0  0  0  0  0  0  0  0  0
   28.0830   49.2940   76.7209 C   0  0  0  0  0  0  0  0  0  0  0  0
   28.2803   50.1175   75.6065 C   0  0  0  0  0  0  0  0  0  0  0  0
   29.5842   50.5515   75.3420 C   0  0  0  0  0  0  0  0  0  0  0  0
   29.7225   51.3651   74.2810 F   0  0  0  0  0  0  0  0  0  0  0  0
   32.9174   50.0709   76.9419 N   0  0  0  0  0  0  0  0  0  0  0  0
   33.4256   48.7560   77.0066 C   0  0  0  0  0  0  0  0  0  0  0  0
   33.7978   48.1586   78.0750 N   0  0  0  0  0  0  0  0  0  0  0  0
   33.5639   47.8498   75.4682 S   0  0  0  0  0  0  0  0  0  0  0  0
   32.6442   48.7602   74.2445 C   0  0  0  0  0  0  0  0  0  0  0  0
   32.4647   50.2302   74.5300 C   0  0  2  0  0  0  0  0  0  0  0  0
   33.6150   51.0561   74.0106 C   0  0  0  0  0  0  0  0  0  0  0  0
   34.8820   50.9634   74.5276 C   0  0  0  0  0  0  0  0  0  0  0  0
   35.9263   51.7439   74.0257 C   0  0  0  0  0  0  0  0  0  0  0  0
   35.7313   52.6224   73.0104 C   0  0  0  0  0  0  0  0  0  0  0  0
   34.4666   52.7347   72.4728 C   0  0  0  0  0  0  0  0  0  0  0  0
   33.4392   51.9633   72.9702 C   0  0  0  0  0  0  0  0  0  0  0  0
  2  1  1  6
  2  3  1  0
  3  4  2  0
  4  5  1  0
  5  6  1  0
  6  7  1  0
  7  8  2  0
  7  9  1  0
  9 10  2  0
 10 11  1  0
 11 12  2  0
 12 13  1  0
 13 14  1  0
 14 15  1  0
 12 16  1  0
 16 17  2  0
  5 18  2  0
 18 19  1  0
 19 20  2  0
 20 21  1  0
  2 22  1  0
 22 23  1  0
 23 24  2  0
 23 25  1  0
 25 26  1  0
 26 27  1  0
 27 28  1  1
 28 29  2  0
 29 30  1  0
 30 31  2  0
 31 32  1  0
 32 33  2  0
 27  2  1  0
 33 28  1  0
 20  3  1  0
 17  9  1  0
M  CHG  1  24   1
M  END
>  <shape_align_shape_tanimoto>  (3) 
0.69770942838373873

>  <shape_align_color_tanimoto>  (3) 
0.082159015407230918

>  <metric>  (3) 
combo

>  <metric_score>  (3) 
0.390

>  <template_pid>  (3) 
6JSE

>  <template_shape_score>  (3) 
0.698

>  <template_color_score>  (3) 
0.082

>  <template_combo_score>  (3) 
0.390

$$$$
