2IZL_shape_pose
     RDKit          3D

 16 17  0  0  0  0  0  0  0  0999 V2000
   43.6456    9.3478   -7.6058 N   0  0  0  0  0  0  0  0  0  0  0  0
   42.5739    8.6297   -7.6477 C   0  0  0  0  0  0  0  0  0  0  0  0
   41.8115    8.1126   -6.5336 N   0  0  0  0  0  0  0  0  0  0  0  0
   40.5736    7.6548   -7.1169 C   0  0  1  0  0  0  0  0  0  0  0  0
   41.0859    7.0699   -8.3958 C   0  0  2  0  0  0  0  0  0  0  0  0
   42.0188    5.9593   -8.0382 C   0  0  0  0  0  0  0  0  0  0  0  0
   41.2375    5.2676   -6.5541 S   0  0  0  0  0  0  0  0  0  0  0  0
   39.9139    6.5290   -6.3292 C   0  0  1  0  0  0  0  0  0  0  0  0
   39.6832    6.8907   -4.9197 C   0  0  0  0  0  0  0  0  0  0  0  0
   38.9975    5.8192   -4.1374 C   0  0  0  0  0  0  0  0  0  0  0  0
   39.7111    4.5235   -4.0771 C   0  0  0  0  0  0  0  0  0  0  0  0
   38.9786    3.4979   -3.2128 C   0  0  0  0  0  0  0  0  0  0  0  0
   37.6226    3.2171   -3.7323 C   0  0  0  0  0  0  0  0  0  0  0  0
   36.6570    3.9885   -3.4967 O   0  0  0  0  0  0  0  0  0  0  0  0
   37.4663    2.0459   -4.5018 O   0  0  0  0  0  0  0  0  0  0  0  0
   41.9168    8.1950   -8.8589 N   0  0  0  0  0  0  0  0  0  0  0  0
  1  2  2  0
  2  3  1  0
  4  3  1  1
  4  5  1  0
  5  6  1  1
  6  7  1  0
  7  8  1  0
  8  9  1  1
  9 10  1  0
 10 11  1  0
 11 12  1  0
 12 13  1  0
 13 14  2  0
 13 15  1  0
  5 16  1  0
 16  2  1  0
  8  4  1  0
M  CHG  2   1   1  15  -1
M  END
>  <shape_align_shape_tanimoto>  (1) 
0.55826613775060818

>  <shape_align_color_tanimoto>  (1) 
0.050075607080246325

>  <metric>  (1) 
shape

>  <metric_score>  (1) 
0.558

>  <template_pid>  (1) 
2IZL

>  <template_shape_score>  (1) 
0.558

>  <template_color_score>  (1) 
0.050

>  <template_combo_score>  (1) 
0.304

$$$$
2IZL_color_pose
     RDKit          3D

 16 17  0  0  0  0  0  0  0  0999 V2000
   40.3276    8.5337   -4.1137 N   0  0  0  0  0  0  0  0  0  0  0  0
   39.8621    7.7221   -4.9938 C   0  0  0  0  0  0  0  0  0  0  0  0
   38.8049    6.7483   -4.8499 N   0  0  0  0  0  0  0  0  0  0  0  0
   39.1563    5.6327   -5.7140 C   0  0  1  0  0  0  0  0  0  0  0  0
   39.6641    6.4033   -6.9175 C   0  0  2  0  0  0  0  0  0  0  0  0
   40.7887    5.6328   -7.5723 C   0  0  0  0  0  0  0  0  0  0  0  0
   41.7526    5.3533   -6.0092 S   0  0  0  0  0  0  0  0  0  0  0  0
   40.2166    4.8232   -5.1121 C   0  0  1  0  0  0  0  0  0  0  0  0
   40.4186    4.6400   -3.7017 C   0  0  0  0  0  0  0  0  0  0  0  0
   39.4760    3.9493   -2.8445 C   0  0  0  0  0  0  0  0  0  0  0  0
   38.0793    4.2378   -2.5726 C   0  0  0  0  0  0  0  0  0  0  0  0
   37.0107    4.1311   -3.5906 C   0  0  0  0  0  0  0  0  0  0  0  0
   36.8869    2.7818   -4.2178 C   0  0  0  0  0  0  0  0  0  0  0  0
   37.5918    1.7965   -3.9150 O   0  0  0  0  0  0  0  0  0  0  0  0
   35.9267    2.6239   -5.1958 O   0  0  0  0  0  0  0  0  0  0  0  0
   40.2808    7.5831   -6.3433 N   0  0  0  0  0  0  0  0  0  0  0  0
  1  2  2  0
  2  3  1  0
  4  3  1  1
  4  5  1  0
  5  6  1  1
  6  7  1  0
  7  8  1  0
  8  9  1  1
  9 10  1  0
 10 11  1  0
 11 12  1  0
 12 13  1  0
 13 14  2  0
 13 15  1  0
  5 16  1  0
 16  2  1  0
  8  4  1  0
M  CHG  2   1   1  15  -1
M  END
>  <shape_align_shape_tanimoto>  (2) 
0.41442104022894438

>  <shape_align_color_tanimoto>  (2) 
0.099611931029266437

>  <metric>  (2) 
color

>  <metric_score>  (2) 
0.100

>  <template_pid>  (2) 
2IZL

>  <template_shape_score>  (2) 
0.414

>  <template_color_score>  (2) 
0.100

>  <template_combo_score>  (2) 
0.257

$$$$
2IZL_combo_pose
     RDKit          3D

 16 17  0  0  0  0  0  0  0  0999 V2000
   42.2753    4.8410   -9.8582 N   0  0  0  0  0  0  0  0  0  0  0  0
   42.2862    5.4743   -8.7265 C   0  0  0  0  0  0  0  0  0  0  0  0
   41.1850    5.9199   -7.9312 N   0  0  0  0  0  0  0  0  0  0  0  0
   41.6774    6.5243   -6.7222 C   0  0  1  0  0  0  0  0  0  0  0  0
   43.0281    7.0483   -7.2359 C   0  0  2  0  0  0  0  0  0  0  0  0
   42.7662    8.1077   -8.2401 C   0  0  0  0  0  0  0  0  0  0  0  0
   41.2665    8.9059   -7.6087 S   0  0  0  0  0  0  0  0  0  0  0  0
   40.9515    7.6899   -6.2250 C   0  0  1  0  0  0  0  0  0  0  0  0
   39.5556    7.7071   -5.8603 C   0  0  0  0  0  0  0  0  0  0  0  0
   39.0965    6.8347   -4.7718 C   0  0  0  0  0  0  0  0  0  0  0  0
   39.2195    5.3742   -5.0012 C   0  0  0  0  0  0  0  0  0  0  0  0
   38.5849    4.6740   -3.7634 C   0  0  0  0  0  0  0  0  0  0  0  0
   38.7075    3.2180   -3.9891 C   0  0  0  0  0  0  0  0  0  0  0  0
   39.8060    2.6404   -4.2423 O   0  0  0  0  0  0  0  0  0  0  0  0
   37.5380    2.4248   -3.9227 O   0  0  0  0  0  0  0  0  0  0  0  0
   43.4635    5.8754   -8.0067 N   0  0  0  0  0  0  0  0  0  0  0  0
  1  2  2  0
  2  3  1  0
  4  3  1  6
  4  5  1  0
  5  6  1  6
  6  7  1  0
  7  8  1  0
  8  9  1  6
  9 10  1  0
 10 11  1  0
 11 12  1  0
 12 13  1  0
 13 14  2  0
 13 15  1  0
  5 16  1  0
 16  2  1  0
  8  4  1  0
M  CHG  2   1   1  15  -1
M  END
>  <shape_align_shape_tanimoto>  (3) 
0.53316228019482403

>  <shape_align_color_tanimoto>  (3) 
0.079164120462490301

>  <metric>  (3) 
combo

>  <metric_score>  (3) 
0.306

>  <template_pid>  (3) 
2IZL

>  <template_shape_score>  (3) 
0.533

>  <template_color_score>  (3) 
0.079

>  <template_combo_score>  (3) 
0.306

$$$$
