1MPL_shape_pose
     RDKit          3D

 21 20  0  0  0  0  0  0  0  0999 V2000
    7.3515   36.7642   30.2086 C   0  0  0  0  0  0  0  0  0  0  0  0
    8.8349   36.4151   30.0956 C   0  0  1  0  0  0  0  0  0  0  0  0
    9.1978   35.5718   31.1964 N   0  0  0  0  0  0  0  0  0  0  0  0
   10.0636   35.9533   32.2530 C   0  0  0  0  0  0  0  0  0  0  0  0
   10.5573   37.1227   32.2310 O   0  0  0  0  0  0  0  0  0  0  0  0
   10.3454   34.9847   33.3135 C   0  0  0  0  0  0  0  0  0  0  0  0
   11.2615   35.4715   34.3768 C   0  0  0  0  0  0  0  0  0  0  0  0
   12.6246   35.8817   33.9338 C   0  0  0  0  0  0  0  0  0  0  0  0
   13.4640   36.3578   35.1013 C   0  0  0  0  0  0  0  0  0  0  0  0
   12.8490   37.5454   35.7987 C   0  0  2  0  0  0  0  0  0  0  0  0
   12.6916   38.6776   34.9161 N   0  0  0  0  0  0  0  0  0  0  0  0
   11.4481   39.3284   34.7784 C   0  0  0  0  0  0  0  0  0  0  0  0
   10.4109   38.9793   35.3984 O   0  0  0  0  0  0  0  0  0  0  0  0
   11.3957   40.4943   33.8344 C   0  0  0  0  0  0  0  0  0  0  0  0
   10.0572   41.0636   33.7942 N   0  0  0  0  0  0  0  0  0  0  0  0
   13.7827   37.9506   36.8843 C   0  0  0  0  0  0  0  0  0  0  0  0
   14.2972   39.1060   36.9394 O   0  0  0  0  0  0  0  0  0  0  0  0
   14.1506   37.0743   37.9157 O   0  0  0  0  0  0  0  0  0  0  0  0
    9.1870   35.8168   28.4750 P   0  0  1  0  0  5  0  0  0  0  0  0
    7.9394   35.1181   27.9456 O   0  0  0  0  0  0  0  0  0  0  0  0
    9.4449   37.1335   27.4343 O   0  0  0  0  0  0  0  0  0  0  0  0
  2  1  1  6
  2  3  1  0
  3  4  1  0
  4  5  2  0
  4  6  1  0
  6  7  1  0
  7  8  1  0
  8  9  1  0
 10  9  1  6
 10 11  1  0
 11 12  1  0
 12 13  2  0
 12 14  1  0
 14 15  1  0
 10 16  1  0
 16 17  2  0
 16 18  1  0
  2 19  1  0
 19 20  2  0
 19 21  1  6
M  CHG  1  15   1
M  END
>  <shape_align_shape_tanimoto>  (1) 
0.50461694643848387

>  <shape_align_color_tanimoto>  (1) 
0.025119647761111023

>  <metric>  (1) 
shape

>  <metric_score>  (1) 
0.505

>  <template_pid>  (1) 
1MPL

>  <template_shape_score>  (1) 
0.505

>  <template_color_score>  (1) 
0.025

>  <template_combo_score>  (1) 
0.265

$$$$
1MPL_color_pose
     RDKit          3D

 21 20  0  0  0  0  0  0  0  0999 V2000
   10.1104   31.2696   34.2662 C   0  0  0  0  0  0  0  0  0  0  0  0
    9.3147   32.5326   34.5849 C   0  0  1  0  0  0  0  0  0  0  0  0
    9.4283   33.4562   33.5032 N   0  0  0  0  0  0  0  0  0  0  0  0
   10.0958   34.7418   33.6704 C   0  0  0  0  0  0  0  0  0  0  0  0
   10.5392   34.9429   34.8097 O   0  0  0  0  0  0  0  0  0  0  0  0
   10.1409   35.5868   32.4874 C   0  0  0  0  0  0  0  0  0  0  0  0
   10.8710   36.8420   32.5376 C   0  0  0  0  0  0  0  0  0  0  0  0
   12.2960   36.9640   32.7796 C   0  0  0  0  0  0  0  0  0  0  0  0
   12.9575   36.5888   34.0317 C   0  0  0  0  0  0  0  0  0  0  0  0
   12.4842   37.4377   35.2223 C   0  0  2  0  0  0  0  0  0  0  0  0
   12.8018   38.8295   34.9290 N   0  0  0  0  0  0  0  0  0  0  0  0
   11.7468   39.8014   34.9508 C   0  0  0  0  0  0  0  0  0  0  0  0
   10.5482   39.4616   35.2214 O   0  0  0  0  0  0  0  0  0  0  0  0
   11.9904   41.2389   34.6629 C   0  0  0  0  0  0  0  0  0  0  0  0
   10.6909   41.8927   34.7823 N   0  0  0  0  0  0  0  0  0  0  0  0
   13.2420   36.9884   36.4137 C   0  0  0  0  0  0  0  0  0  0  0  0
   14.0352   37.7220   37.0568 O   0  0  0  0  0  0  0  0  0  0  0  0
   13.0423   35.6634   36.8237 O   0  0  0  0  0  0  0  0  0  0  0  0
    7.6093   32.1066   34.9825 P   0  0  1  0  0  5  0  0  0  0  0  0
    7.3310   30.7048   34.4959 O   0  0  0  0  0  0  0  0  0  0  0  0
    7.4240   32.0709   36.6642 O   0  0  0  0  0  0  0  0  0  0  0  0
  2  1  1  6
  2  3  1  0
  3  4  1  0
  4  5  2  0
  4  6  1  0
  6  7  1  0
  7  8  1  0
  8  9  1  0
 10  9  1  6
 10 11  1  0
 11 12  1  0
 12 13  2  0
 12 14  1  0
 14 15  1  0
 10 16  1  0
 16 17  2  0
 16 18  1  0
  2 19  1  0
 19 20  2  0
 19 21  1  1
M  CHG  1  15   1
M  END
>  <shape_align_shape_tanimoto>  (2) 
0.49136104587214074

>  <shape_align_color_tanimoto>  (2) 
0.090231079088518476

>  <metric>  (2) 
color

>  <metric_score>  (2) 
0.090

>  <template_pid>  (2) 
1MPL

>  <template_shape_score>  (2) 
0.491

>  <template_color_score>  (2) 
0.090

>  <template_combo_score>  (2) 
0.291

$$$$
1MPL_combo_pose
     RDKit          3D

 21 20  0  0  0  0  0  0  0  0999 V2000
   10.1104   31.2696   34.2662 C   0  0  0  0  0  0  0  0  0  0  0  0
    9.3147   32.5326   34.5849 C   0  0  1  0  0  0  0  0  0  0  0  0
    9.4283   33.4562   33.5032 N   0  0  0  0  0  0  0  0  0  0  0  0
   10.0958   34.7418   33.6704 C   0  0  0  0  0  0  0  0  0  0  0  0
   10.5392   34.9429   34.8097 O   0  0  0  0  0  0  0  0  0  0  0  0
   10.1409   35.5868   32.4874 C   0  0  0  0  0  0  0  0  0  0  0  0
   10.8710   36.8420   32.5376 C   0  0  0  0  0  0  0  0  0  0  0  0
   12.2960   36.9640   32.7796 C   0  0  0  0  0  0  0  0  0  0  0  0
   12.9575   36.5888   34.0317 C   0  0  0  0  0  0  0  0  0  0  0  0
   12.4842   37.4377   35.2223 C   0  0  2  0  0  0  0  0  0  0  0  0
   12.8018   38.8295   34.9290 N   0  0  0  0  0  0  0  0  0  0  0  0
   11.7468   39.8014   34.9508 C   0  0  0  0  0  0  0  0  0  0  0  0
   10.5482   39.4616   35.2214 O   0  0  0  0  0  0  0  0  0  0  0  0
   11.9904   41.2389   34.6629 C   0  0  0  0  0  0  0  0  0  0  0  0
   10.6909   41.8927   34.7823 N   0  0  0  0  0  0  0  0  0  0  0  0
   13.2420   36.9884   36.4137 C   0  0  0  0  0  0  0  0  0  0  0  0
   14.0352   37.7220   37.0568 O   0  0  0  0  0  0  0  0  0  0  0  0
   13.0423   35.6634   36.8237 O   0  0  0  0  0  0  0  0  0  0  0  0
    7.6093   32.1066   34.9825 P   0  0  1  0  0  5  0  0  0  0  0  0
    7.3310   30.7048   34.4959 O   0  0  0  0  0  0  0  0  0  0  0  0
    7.4240   32.0709   36.6642 O   0  0  0  0  0  0  0  0  0  0  0  0
  2  1  1  6
  2  3  1  0
  3  4  1  0
  4  5  2  0
  4  6  1  0
  6  7  1  0
  7  8  1  0
  8  9  1  0
 10  9  1  6
 10 11  1  0
 11 12  1  0
 12 13  2  0
 12 14  1  0
 14 15  1  0
 10 16  1  0
 16 17  2  0
 16 18  1  0
  2 19  1  0
 19 20  2  0
 19 21  1  1
M  CHG  1  15   1
M  END
>  <shape_align_shape_tanimoto>  (3) 
0.49136104587214074

>  <shape_align_color_tanimoto>  (3) 
0.090231079088518476

>  <metric>  (3) 
combo

>  <metric_score>  (3) 
0.291

>  <template_pid>  (3) 
1MPL

>  <template_shape_score>  (3) 
0.491

>  <template_color_score>  (3) 
0.090

>  <template_combo_score>  (3) 
0.291

$$$$
