5NPC_shape_pose
     RDKit          3D

 16 17  0  0  0  0  0  0  0  0999 V2000
   49.2062   -9.8193   29.6716 O   0  0  0  0  0  0  0  0  0  0  0  0
   50.3133   -9.3288   30.5417 S   0  0  0  0  0  0  0  0  0  0  0  0
   50.0626   -9.5749   32.0000 O   0  0  0  0  0  0  0  0  0  0  0  0
   50.5349   -7.6781   30.3056 O   0  0  0  0  0  0  0  0  0  0  0  0
   51.6596   -7.6534   29.5030 C   0  0  2  0  0  0  0  0  0  0  0  0
   51.3441   -7.8577   28.0398 C   0  0  2  0  0  0  0  0  0  0  0  0
   51.0458   -9.2000   27.8663 O   0  0  0  0  0  0  0  0  0  0  0  0
   52.5864   -7.4425   27.2637 C   0  0  1  0  0  0  0  0  0  0  0  0
   52.5058   -6.0538   27.0809 O   0  0  0  0  0  0  0  0  0  0  0  0
   53.8359   -7.7307   28.0415 C   0  0  2  0  0  0  0  0  0  0  0  0
   54.8925   -7.9148   27.1707 O   0  0  0  0  0  0  0  0  0  0  0  0
   53.6061   -8.9748   28.8723 C   0  0  1  0  0  0  0  0  0  0  0  0
   54.9352   -9.4270   29.4101 C   0  0  0  0  0  0  0  0  0  0  0  0
   55.7520   -9.6942   28.3047 O   0  0  0  0  0  0  0  0  0  0  0  0
   52.5708   -8.7656   29.9225 C   0  0  2  0  0  0  0  0  0  0  0  0
   51.8099   -9.9165   30.0630 O   0  0  0  0  0  0  0  0  0  0  0  0
  1  2  2  0
  2  3  2  0
  2  4  1  0
  5  4  1  1
  5  6  1  0
  6  7  1  1
  6  8  1  0
  8  9  1  1
  8 10  1  0
 10 11  1  6
 10 12  1  0
 12 13  1  1
 13 14  1  0
 12 15  1  0
 15 16  1  6
 16  2  1  0
 15  5  1  0
M  END
>  <shape_align_shape_tanimoto>  (1) 
0.84842037162748885

>  <shape_align_color_tanimoto>  (1) 
0.22847336562110759

>  <metric>  (1) 
shape

>  <metric_score>  (1) 
0.848

>  <template_pid>  (1) 
5NPC

>  <template_shape_score>  (1) 
0.848

>  <template_color_score>  (1) 
0.228

>  <template_combo_score>  (1) 
0.538

$$$$
5NPC_color_pose
     RDKit          3D

 16 17  0  0  0  0  0  0  0  0999 V2000
   50.0360   -6.5007   26.4039 O   0  0  0  0  0  0  0  0  0  0  0  0
   51.3626   -7.2221   26.3955 S   0  0  0  0  0  0  0  0  0  0  0  0
   51.8520   -7.4670   25.0035 O   0  0  0  0  0  0  0  0  0  0  0  0
   52.4962   -6.3833   27.3153 O   0  0  0  0  0  0  0  0  0  0  0  0
   52.6902   -7.1166   28.4517 C   0  0  2  0  0  0  0  0  0  0  0  0
   54.0566   -7.7316   28.3822 C   0  0  2  0  0  0  0  0  0  0  0  0
   54.6424   -7.5855   27.1164 O   0  0  0  0  0  0  0  0  0  0  0  0
   54.0664   -9.1887   28.7155 C   0  0  1  0  0  0  0  0  0  0  0  0
   55.3752   -9.5703   28.9827 O   0  0  0  0  0  0  0  0  0  0  0  0
   53.2352   -9.3427   29.9840 C   0  0  2  0  0  0  0  0  0  0  0  0
   53.4231  -10.5757   30.5954 O   0  0  0  0  0  0  0  0  0  0  0  0
   51.7941   -9.1673   29.5660 C   0  0  1  0  0  0  0  0  0  0  0  0
   50.9293   -9.0175   30.8179 C   0  0  0  0  0  0  0  0  0  0  0  0
   49.5856   -8.8515   30.5063 O   0  0  0  0  0  0  0  0  0  0  0  0
   51.5625   -8.0953   28.5786 C   0  0  2  0  0  0  0  0  0  0  0  0
   51.3023   -8.6300   27.3166 O   0  0  0  0  0  0  0  0  0  0  0  0
  1  2  2  0
  2  3  2  0
  2  4  1  0
  5  4  1  6
  5  6  1  0
  6  7  1  6
  6  8  1  0
  8  9  1  1
  8 10  1  0
 10 11  1  6
 10 12  1  0
 12 13  1  1
 13 14  1  0
 12 15  1  0
 15 16  1  6
 16  2  1  0
 15  5  1  0
M  END
>  <shape_align_shape_tanimoto>  (2) 
0.80191846920048737

>  <shape_align_color_tanimoto>  (2) 
0.27698785493474698

>  <metric>  (2) 
color

>  <metric_score>  (2) 
0.277

>  <template_pid>  (2) 
5NPC

>  <template_shape_score>  (2) 
0.802

>  <template_color_score>  (2) 
0.277

>  <template_combo_score>  (2) 
0.539

$$$$
5NPC_combo_pose
     RDKit          3D

 16 17  0  0  0  0  0  0  0  0999 V2000
   50.0360   -6.5007   26.4039 O   0  0  0  0  0  0  0  0  0  0  0  0
   51.3626   -7.2221   26.3955 S   0  0  0  0  0  0  0  0  0  0  0  0
   51.8520   -7.4670   25.0035 O   0  0  0  0  0  0  0  0  0  0  0  0
   52.4962   -6.3833   27.3153 O   0  0  0  0  0  0  0  0  0  0  0  0
   52.6902   -7.1166   28.4517 C   0  0  2  0  0  0  0  0  0  0  0  0
   54.0566   -7.7316   28.3822 C   0  0  2  0  0  0  0  0  0  0  0  0
   54.6424   -7.5855   27.1164 O   0  0  0  0  0  0  0  0  0  0  0  0
   54.0664   -9.1887   28.7155 C   0  0  1  0  0  0  0  0  0  0  0  0
   55.3752   -9.5703   28.9827 O   0  0  0  0  0  0  0  0  0  0  0  0
   53.2352   -9.3427   29.9840 C   0  0  2  0  0  0  0  0  0  0  0  0
   53.4231  -10.5757   30.5954 O   0  0  0  0  0  0  0  0  0  0  0  0
   51.7941   -9.1673   29.5660 C   0  0  1  0  0  0  0  0  0  0  0  0
   50.9293   -9.0175   30.8179 C   0  0  0  0  0  0  0  0  0  0  0  0
   49.5856   -8.8515   30.5063 O   0  0  0  0  0  0  0  0  0  0  0  0
   51.5625   -8.0953   28.5786 C   0  0  2  0  0  0  0  0  0  0  0  0
   51.3023   -8.6300   27.3166 O   0  0  0  0  0  0  0  0  0  0  0  0
  1  2  2  0
  2  3  2  0
  2  4  1  0
  5  4  1  6
  5  6  1  0
  6  7  1  6
  6  8  1  0
  8  9  1  1
  8 10  1  0
 10 11  1  6
 10 12  1  0
 12 13  1  1
 13 14  1  0
 12 15  1  0
 15 16  1  6
 16  2  1  0
 15  5  1  0
M  END
>  <shape_align_shape_tanimoto>  (3) 
0.80191846920048737

>  <shape_align_color_tanimoto>  (3) 
0.27698785493474698

>  <metric>  (3) 
combo

>  <metric_score>  (3) 
0.539

>  <template_pid>  (3) 
5NPC

>  <template_shape_score>  (3) 
0.802

>  <template_color_score>  (3) 
0.277

>  <template_combo_score>  (3) 
0.539

$$$$
