6OY2_shape_pose
     RDKit          3D

 43 46  0  0  0  0  0  0  0  0999 V2000
    6.5411   -4.0332   13.8496 C   0  0  0  0  0  0  0  0  0  0  0  0
    7.3668   -4.3716   15.0436 C   0  0  0  0  0  0  0  0  0  0  0  0
    8.2257   -3.2787   15.5934 C   0  0  0  0  0  0  0  0  0  0  0  0
    8.9829   -3.9854   16.7747 C   0  0  0  0  0  0  0  0  0  0  0  0
    9.7825   -5.1341   16.2177 C   0  0  0  0  0  0  0  0  0  0  0  0
    7.5588   -2.0748   16.1514 C   0  0  0  0  0  0  0  0  0  0  0  0
    6.7103   -1.2920   15.3367 N   0  0  0  0  0  0  0  0  0  0  0  0
    7.1868   -0.0702   14.8347 C   0  0  0  0  0  0  0  0  0  0  0  0
    7.5531    0.0251   13.4001 C   0  0  1  0  0  0  0  0  0  0  0  0
    8.5556   -0.9193   13.0750 O   0  0  0  0  0  0  0  0  0  0  0  0
    6.5502   -0.0188   12.3481 C   0  0  2  0  0  0  0  0  0  0  0  0
    7.2510    0.3813   11.0248 C   0  0  0  0  0  0  0  0  0  0  0  0
    7.8308    1.7231   11.0629 C   0  0  0  0  0  0  0  0  0  0  0  0
    9.1319    2.0304   11.3910 C   0  0  0  0  0  0  0  0  0  0  0  0
    9.6034    3.3373   11.4090 C   0  0  0  0  0  0  0  0  0  0  0  0
    8.7587    4.3891   11.0901 C   0  0  0  0  0  0  0  0  0  0  0  0
    7.4655    4.0887   10.7634 C   0  0  0  0  0  0  0  0  0  0  0  0
    7.0075    2.7970   10.7479 C   0  0  0  0  0  0  0  0  0  0  0  0
    5.5037    0.9555   12.5389 N   0  0  0  0  0  0  0  0  0  0  0  0
    4.1983    0.6010   12.0903 C   0  0  0  0  0  0  0  0  0  0  0  0
    3.9791   -0.5138   11.5541 O   0  0  0  0  0  0  0  0  0  0  0  0
    3.1633    1.5386   12.2659 O   0  0  0  0  0  0  0  0  0  0  0  0
    1.8710    1.1719   11.8124 C   0  0  1  0  0  0  0  0  0  0  0  0
    0.8218    1.2679   12.8568 C   0  0  0  0  0  0  0  0  0  0  0  0
   -0.0997    2.2250   12.4868 O   0  0  0  0  0  0  0  0  0  0  0  0
    0.2898    2.8371   11.3337 C   0  0  1  0  0  0  0  0  0  0  0  0
    0.6481    4.1561   11.4673 O   0  0  0  0  0  0  0  0  0  0  0  0
    2.0165    4.2519   11.3739 C   0  0  0  0  0  0  0  0  0  0  0  0
    2.4691    3.1497   10.4536 C   0  0  0  0  0  0  0  0  0  0  0  0
    1.4069    2.0910   10.7061 C   0  0  1  0  0  0  0  0  0  0  0  0
    5.0973   -1.2103   15.8682 S   0  0  0  0  0  0  0  0  0  0  0  0
    4.2306   -0.2633   15.1129 O   0  0  0  0  0  0  0  0  0  0  0  0
    5.0543   -0.7150   17.3304 O   0  0  0  0  0  0  0  0  0  0  0  0
    4.2601   -2.7459   15.9191 C   0  0  0  0  0  0  0  0  0  0  0  0
    3.4483   -3.1341   14.8452 C   0  0  0  0  0  0  0  0  0  0  0  0
    2.7808   -4.3516   14.8793 C   0  0  0  0  0  0  0  0  0  0  0  0
    2.9244   -5.1783   15.9833 C   0  0  0  0  0  0  0  0  0  0  0  0
    2.2271   -6.4991   16.0721 C   0  0  2  0  0  0  0  0  0  0  0  0
    3.1554   -7.4286   16.5277 O   0  0  0  0  0  0  0  0  0  0  0  0
    1.7101   -6.9263   14.7413 C   0  0  0  0  0  0  0  0  0  0  0  0
    1.1076   -8.1839   14.9072 O   0  0  0  0  0  0  0  0  0  0  0  0
    3.7211   -4.8172   17.0581 C   0  0  0  0  0  0  0  0  0  0  0  0
    4.3775   -3.6044   17.0085 C   0  0  0  0  0  0  0  0  0  0  0  0
  1  2  1  0
  2  3  1  0
  3  4  1  0
  4  5  1  0
  3  6  1  0
  6  7  1  0
  7  8  1  0
  8  9  1  0
  9 10  1  6
  9 11  1  0
 11 12  1  6
 12 13  1  0
 13 14  2  0
 14 15  1  0
 15 16  2  0
 16 17  1  0
 17 18  2  0
 11 19  1  0
 19 20  1  0
 20 21  2  0
 20 22  1  0
 23 22  1  1
 23 24  1  0
 24 25  1  0
 26 25  1  1
 26 27  1  0
 27 28  1  0
 28 29  1  0
 30 29  1  1
  7 31  1  0
 31 32  2  0
 31 33  2  0
 31 34  1  0
 34 35  2  0
 35 36  1  0
 36 37  2  0
 37 38  1  0
 38 39  1  6
 38 40  1  0
 40 41  1  0
 37 42  1  0
 42 43  2  0
 18 13  1  0
 30 23  1  0
 43 34  1  0
 30 26  1  0
M  END
>  <shape_align_shape_tanimoto>  (1) 
0.65666006096018292

>  <shape_align_color_tanimoto>  (1) 
0.033205889028680831

>  <metric>  (1) 
shape

>  <metric_score>  (1) 
0.657

>  <template_pid>  (1) 
6OY2

>  <template_shape_score>  (1) 
0.657

>  <template_color_score>  (1) 
0.033

>  <template_combo_score>  (1) 
0.345

$$$$
6OY2_color_pose
     RDKit          3D

 43 46  0  0  0  0  0  0  0  0999 V2000
    1.6081   -5.2627   17.9961 C   0  0  0  0  0  0  0  0  0  0  0  0
    0.9534   -4.8403   16.7153 C   0  0  0  0  0  0  0  0  0  0  0  0
    1.4861   -5.5075   15.4927 C   0  0  0  0  0  0  0  0  0  0  0  0
    1.3021   -7.0114   15.7049 C   0  0  0  0  0  0  0  0  0  0  0  0
    1.8178   -7.7651   14.5168 C   0  0  0  0  0  0  0  0  0  0  0  0
    2.8416   -5.1035   15.0868 C   0  0  0  0  0  0  0  0  0  0  0  0
    3.0191   -3.7017   14.7746 N   0  0  0  0  0  0  0  0  0  0  0  0
    3.1133   -3.5565   13.3679 C   0  0  0  0  0  0  0  0  0  0  0  0
    2.1158   -2.6834   12.6773 C   0  0  1  0  0  0  0  0  0  0  0  0
    0.8440   -3.0776   13.0743 O   0  0  0  0  0  0  0  0  0  0  0  0
    2.3930   -1.2434   12.7201 C   0  0  2  0  0  0  0  0  0  0  0  0
    1.4048   -0.4917   11.7777 C   0  0  0  0  0  0  0  0  0  0  0  0
    1.7501    0.9425   11.8752 C   0  0  0  0  0  0  0  0  0  0  0  0
    1.1505    1.6707   12.9096 C   0  0  0  0  0  0  0  0  0  0  0  0
    1.4382    3.0260   13.0273 C   0  0  0  0  0  0  0  0  0  0  0  0
    2.2902    3.6657   12.1598 C   0  0  0  0  0  0  0  0  0  0  0  0
    2.8867    2.9338   11.1276 C   0  0  0  0  0  0  0  0  0  0  0  0
    2.6211    1.5692   10.9784 C   0  0  0  0  0  0  0  0  0  0  0  0
    3.6972   -0.8693   12.2529 N   0  0  0  0  0  0  0  0  0  0  0  0
    4.5150    0.1728   12.7402 C   0  0  0  0  0  0  0  0  0  0  0  0
    4.2186    0.9541   13.6722 O   0  0  0  0  0  0  0  0  0  0  0  0
    5.7482    0.3499   12.1429 O   0  0  0  0  0  0  0  0  0  0  0  0
    6.7331    1.2671   12.4220 C   0  0  1  0  0  0  0  0  0  0  0  0
    8.0831    0.7742   12.7219 C   0  0  0  0  0  0  0  0  0  0  0  0
    9.0016    1.6446   12.1575 O   0  0  0  0  0  0  0  0  0  0  0  0
    8.3168    2.8041   11.8256 C   0  0  1  0  0  0  0  0  0  0  0  0
    8.8114    3.4325   10.7105 O   0  0  0  0  0  0  0  0  0  0  0  0
    8.4209    2.7616    9.5799 C   0  0  0  0  0  0  0  0  0  0  0  0
    7.3581    1.7410   10.0200 C   0  0  0  0  0  0  0  0  0  0  0  0
    6.9820    2.2855   11.3509 C   0  0  1  0  0  0  0  0  0  0  0  0
    4.0159   -2.8344   15.8012 S   0  0  0  0  0  0  0  0  0  0  0  0
    3.4870   -2.9039   17.2203 O   0  0  0  0  0  0  0  0  0  0  0  0
    4.0464   -1.3884   15.4548 O   0  0  0  0  0  0  0  0  0  0  0  0
    5.6709   -3.4425   15.8037 C   0  0  0  0  0  0  0  0  0  0  0  0
    6.1019   -4.4200   16.6687 C   0  0  0  0  0  0  0  0  0  0  0  0
    7.4142   -4.8069   16.5852 C   0  0  0  0  0  0  0  0  0  0  0  0
    8.3130   -4.2535   15.6697 C   0  0  0  0  0  0  0  0  0  0  0  0
    9.7367   -4.6965   15.6085 C   0  0  2  0  0  0  0  0  0  0  0  0
   10.2239   -4.7804   16.9222 O   0  0  0  0  0  0  0  0  0  0  0  0
   10.5560   -3.6732   14.8759 C   0  0  0  0  0  0  0  0  0  0  0  0
   10.4511   -2.4127   15.4880 O   0  0  0  0  0  0  0  0  0  0  0  0
    7.8576   -3.2811   14.8191 C   0  0  0  0  0  0  0  0  0  0  0  0
    6.5429   -2.8690   14.8762 C   0  0  0  0  0  0  0  0  0  0  0  0
  1  2  1  0
  2  3  1  0
  3  4  1  0
  4  5  1  0
  3  6  1  0
  6  7  1  0
  7  8  1  0
  8  9  1  0
  9 10  1  1
  9 11  1  0
 11 12  1  6
 12 13  1  0
 13 14  2  0
 14 15  1  0
 15 16  2  0
 16 17  1  0
 17 18  2  0
 11 19  1  0
 19 20  1  0
 20 21  2  0
 20 22  1  0
 23 22  1  6
 23 24  1  0
 24 25  1  0
 26 25  1  6
 26 27  1  0
 27 28  1  0
 28 29  1  0
 30 29  1  6
  7 31  1  0
 31 32  2  0
 31 33  2  0
 31 34  1  0
 34 35  2  0
 35 36  1  0
 36 37  2  0
 37 38  1  0
 38 39  1  1
 38 40  1  0
 40 41  1  0
 37 42  1  0
 42 43  2  0
 18 13  1  0
 30 23  1  0
 43 34  1  0
 30 26  1  0
M  END
>  <shape_align_shape_tanimoto>  (2) 
0.58155563982539404

>  <shape_align_color_tanimoto>  (2) 
0.10804933525971222

>  <metric>  (2) 
color

>  <metric_score>  (2) 
0.108

>  <template_pid>  (2) 
6OY2

>  <template_shape_score>  (2) 
0.582

>  <template_color_score>  (2) 
0.108

>  <template_combo_score>  (2) 
0.345

$$$$
6OY2_combo_pose
     RDKit          3D

 43 46  0  0  0  0  0  0  0  0999 V2000
    6.5411   -4.0332   13.8496 C   0  0  0  0  0  0  0  0  0  0  0  0
    7.3668   -4.3716   15.0436 C   0  0  0  0  0  0  0  0  0  0  0  0
    8.2257   -3.2787   15.5934 C   0  0  0  0  0  0  0  0  0  0  0  0
    8.9829   -3.9854   16.7747 C   0  0  0  0  0  0  0  0  0  0  0  0
    9.7825   -5.1341   16.2177 C   0  0  0  0  0  0  0  0  0  0  0  0
    7.5588   -2.0748   16.1514 C   0  0  0  0  0  0  0  0  0  0  0  0
    6.7103   -1.2920   15.3367 N   0  0  0  0  0  0  0  0  0  0  0  0
    7.1868   -0.0702   14.8347 C   0  0  0  0  0  0  0  0  0  0  0  0
    7.5531    0.0251   13.4001 C   0  0  1  0  0  0  0  0  0  0  0  0
    8.5556   -0.9193   13.0750 O   0  0  0  0  0  0  0  0  0  0  0  0
    6.5502   -0.0188   12.3481 C   0  0  2  0  0  0  0  0  0  0  0  0
    7.2510    0.3813   11.0248 C   0  0  0  0  0  0  0  0  0  0  0  0
    7.8308    1.7231   11.0629 C   0  0  0  0  0  0  0  0  0  0  0  0
    9.1319    2.0304   11.3910 C   0  0  0  0  0  0  0  0  0  0  0  0
    9.6034    3.3373   11.4090 C   0  0  0  0  0  0  0  0  0  0  0  0
    8.7587    4.3891   11.0901 C   0  0  0  0  0  0  0  0  0  0  0  0
    7.4655    4.0887   10.7634 C   0  0  0  0  0  0  0  0  0  0  0  0
    7.0075    2.7970   10.7479 C   0  0  0  0  0  0  0  0  0  0  0  0
    5.5037    0.9555   12.5389 N   0  0  0  0  0  0  0  0  0  0  0  0
    4.1983    0.6010   12.0903 C   0  0  0  0  0  0  0  0  0  0  0  0
    3.9791   -0.5138   11.5541 O   0  0  0  0  0  0  0  0  0  0  0  0
    3.1633    1.5386   12.2659 O   0  0  0  0  0  0  0  0  0  0  0  0
    1.8710    1.1719   11.8124 C   0  0  1  0  0  0  0  0  0  0  0  0
    0.8218    1.2679   12.8568 C   0  0  0  0  0  0  0  0  0  0  0  0
   -0.0997    2.2250   12.4868 O   0  0  0  0  0  0  0  0  0  0  0  0
    0.2898    2.8371   11.3337 C   0  0  1  0  0  0  0  0  0  0  0  0
    0.6481    4.1561   11.4673 O   0  0  0  0  0  0  0  0  0  0  0  0
    2.0165    4.2519   11.3739 C   0  0  0  0  0  0  0  0  0  0  0  0
    2.4691    3.1497   10.4536 C   0  0  0  0  0  0  0  0  0  0  0  0
    1.4069    2.0910   10.7061 C   0  0  1  0  0  0  0  0  0  0  0  0
    5.0973   -1.2103   15.8682 S   0  0  0  0  0  0  0  0  0  0  0  0
    4.2306   -0.2633   15.1129 O   0  0  0  0  0  0  0  0  0  0  0  0
    5.0543   -0.7150   17.3304 O   0  0  0  0  0  0  0  0  0  0  0  0
    4.2601   -2.7459   15.9191 C   0  0  0  0  0  0  0  0  0  0  0  0
    3.4483   -3.1341   14.8452 C   0  0  0  0  0  0  0  0  0  0  0  0
    2.7808   -4.3516   14.8793 C   0  0  0  0  0  0  0  0  0  0  0  0
    2.9244   -5.1783   15.9833 C   0  0  0  0  0  0  0  0  0  0  0  0
    2.2271   -6.4991   16.0721 C   0  0  2  0  0  0  0  0  0  0  0  0
    3.1554   -7.4286   16.5277 O   0  0  0  0  0  0  0  0  0  0  0  0
    1.7101   -6.9263   14.7413 C   0  0  0  0  0  0  0  0  0  0  0  0
    1.1076   -8.1839   14.9072 O   0  0  0  0  0  0  0  0  0  0  0  0
    3.7211   -4.8172   17.0581 C   0  0  0  0  0  0  0  0  0  0  0  0
    4.3775   -3.6044   17.0085 C   0  0  0  0  0  0  0  0  0  0  0  0
  1  2  1  0
  2  3  1  0
  3  4  1  0
  4  5  1  0
  3  6  1  0
  6  7  1  0
  7  8  1  0
  8  9  1  0
  9 10  1  6
  9 11  1  0
 11 12  1  6
 12 13  1  0
 13 14  2  0
 14 15  1  0
 15 16  2  0
 16 17  1  0
 17 18  2  0
 11 19  1  0
 19 20  1  0
 20 21  2  0
 20 22  1  0
 23 22  1  1
 23 24  1  0
 24 25  1  0
 26 25  1  1
 26 27  1  0
 27 28  1  0
 28 29  1  0
 30 29  1  1
  7 31  1  0
 31 32  2  0
 31 33  2  0
 31 34  1  0
 34 35  2  0
 35 36  1  0
 36 37  2  0
 37 38  1  0
 38 39  1  6
 38 40  1  0
 40 41  1  0
 37 42  1  0
 42 43  2  0
 18 13  1  0
 30 23  1  0
 43 34  1  0
 30 26  1  0
M  END
>  <shape_align_shape_tanimoto>  (3) 
0.65666006096018292

>  <shape_align_color_tanimoto>  (3) 
0.033205889028680831

>  <metric>  (3) 
combo

>  <metric_score>  (3) 
0.345

>  <template_pid>  (3) 
6OY2

>  <template_shape_score>  (3) 
0.657

>  <template_color_score>  (3) 
0.033

>  <template_combo_score>  (3) 
0.345

$$$$
