6H7Y_shape_pose
     RDKit          3D

 30 30  0  0  0  0  0  0  0  0999 V2000
   13.4508   45.7031   41.0615 O   0  0  0  0  0  0  0  0  0  0  0  0
   13.4293   46.2925   39.9764 C   0  0  0  0  0  0  0  0  0  0  0  0
   12.2397   46.1613   39.2253 O   0  0  0  0  0  0  0  0  0  0  0  0
   14.4890   47.1097   39.3777 C   0  0  0  0  0  0  0  0  0  0  0  0
   14.3675   48.5690   39.6682 C   0  0  0  0  0  0  0  0  0  0  0  0
   14.4651   48.8958   41.1032 C   0  0  2  0  0  0  0  0  0  0  0  0
   13.4926   48.2914   41.9754 N   0  0  0  0  0  0  0  0  0  0  0  0
   13.8925   47.9299   43.3350 C   0  0  0  0  0  0  0  0  0  0  0  0
   15.0777   48.2443   43.5830 O   0  0  0  0  0  0  0  0  0  0  0  0
   12.9738   47.3133   44.1719 N   0  0  0  0  0  0  0  0  0  0  0  0
   12.9488   46.8268   45.4867 C   0  0  1  0  0  0  0  0  0  0  0  0
   14.0197   46.8488   46.4537 C   0  0  0  0  0  0  0  0  0  0  0  0
   15.2708   46.1161   46.4758 C   0  0  0  0  0  0  0  0  0  0  0  0
   16.2986   46.0645   45.4813 C   0  0  0  0  0  0  0  0  0  0  0  0
   16.0429   45.4139   44.1715 C   0  0  0  0  0  0  0  0  0  0  0  0
   14.9435   44.8929   43.8828 O   0  0  0  0  0  0  0  0  0  0  0  0
   17.1236   45.4051   43.2488 N   0  0  0  0  0  0  0  0  0  0  0  0
   17.1284   44.8325   41.9727 C   0  0  0  0  0  0  0  0  0  0  0  0
   16.1613   44.0805   41.3969 C   0  0  0  0  0  0  0  0  0  0  0  0
   16.2537   43.5561   40.0999 C   0  0  0  0  0  0  0  0  0  0  0  0
   17.3821   43.8058   39.3491 C   0  0  0  0  0  0  0  0  0  0  0  0
   17.4804   43.3038   38.0961 F   0  0  0  0  0  0  0  0  0  0  0  0
   18.3671   44.5597   39.9090 C   0  0  0  0  0  0  0  0  0  0  0  0
   18.2677   45.0700   41.1821 C   0  0  0  0  0  0  0  0  0  0  0  0
   11.6733   47.2961   46.1222 C   0  0  0  0  0  0  0  0  0  0  0  0
   10.5457   46.9041   45.7185 O   0  0  0  0  0  0  0  0  0  0  0  0
   11.7711   48.1856   47.1808 O   0  0  0  0  0  0  0  0  0  0  0  0
   14.2597   50.4067   41.2368 C   0  0  0  0  0  0  0  0  0  0  0  0
   13.2094   50.8753   41.7008 O   0  0  0  0  0  0  0  0  0  0  0  0
   15.3274   51.1722   40.8026 O   0  0  0  0  0  0  0  0  0  0  0  0
  1  2  2  0
  2  3  1  0
  2  4  1  0
  4  5  1  0
  6  5  1  6
  6  7  1  0
  7  8  1  0
  8  9  2  0
  8 10  1  0
 10 11  1  0
 11 12  1  1
 12 13  1  0
 13 14  1  0
 14 15  1  0
 15 16  2  0
 15 17  1  0
 17 18  1  0
 18 19  2  0
 19 20  1  0
 20 21  2  0
 21 22  1  0
 21 23  1  0
 23 24  2  0
 11 25  1  0
 25 26  2  0
 25 27  1  0
  6 28  1  0
 28 29  2  0
 28 30  1  0
 24 18  1  0
M  CHG  3   3  -1  27  -1  30  -1
M  END
>  <shape_align_shape_tanimoto>  (1) 
0.39756404781283761

>  <shape_align_color_tanimoto>  (1) 
0.039401052722078375

>  <metric>  (1) 
shape

>  <metric_score>  (1) 
0.398

>  <template_pid>  (1) 
6H7Y

>  <template_shape_score>  (1) 
0.398

>  <template_color_score>  (1) 
0.039

>  <template_combo_score>  (1) 
0.218

$$$$
6H7Y_color_pose
     RDKit          3D

 30 30  0  0  0  0  0  0  0  0999 V2000
   22.5093   48.2537   40.1403 O   0  0  0  0  0  0  0  0  0  0  0  0
   23.0843   47.6983   41.1261 C   0  0  0  0  0  0  0  0  0  0  0  0
   23.3534   48.5499   42.2074 O   0  0  0  0  0  0  0  0  0  0  0  0
   23.4543   46.2797   41.1689 C   0  0  0  0  0  0  0  0  0  0  0  0
   22.2611   45.3739   41.3908 C   0  0  0  0  0  0  0  0  0  0  0  0
   21.2298   45.4950   40.3213 C   0  0  2  0  0  0  0  0  0  0  0  0
   20.0844   44.6066   40.5644 N   0  0  0  0  0  0  0  0  0  0  0  0
   18.7667   45.1440   40.7297 C   0  0  0  0  0  0  0  0  0  0  0  0
   18.6424   46.3923   40.6578 O   0  0  0  0  0  0  0  0  0  0  0  0
   17.6534   44.2940   40.9646 N   0  0  0  0  0  0  0  0  0  0  0  0
   16.2835   44.8976   41.1338 C   0  0  1  0  0  0  0  0  0  0  0  0
   15.3446   44.2812   40.1880 C   0  0  0  0  0  0  0  0  0  0  0  0
   13.9300   44.7122   40.1508 C   0  0  0  0  0  0  0  0  0  0  0  0
   13.6216   46.1023   39.8020 C   0  0  0  0  0  0  0  0  0  0  0  0
   13.9917   47.2139   40.6473 C   0  0  0  0  0  0  0  0  0  0  0  0
   14.3709   47.2215   41.8263 O   0  0  0  0  0  0  0  0  0  0  0  0
   13.9138   48.5338   40.0392 N   0  0  0  0  0  0  0  0  0  0  0  0
   14.2879   49.6300   40.9000 C   0  0  0  0  0  0  0  0  0  0  0  0
   15.6313   49.9746   40.8692 C   0  0  0  0  0  0  0  0  0  0  0  0
   16.0871   51.0137   41.6620 C   0  0  0  0  0  0  0  0  0  0  0  0
   15.1675   51.6644   42.4554 C   0  0  0  0  0  0  0  0  0  0  0  0
   15.6238   52.6950   43.2412 F   0  0  0  0  0  0  0  0  0  0  0  0
   13.8235   51.3082   42.4766 C   0  0  0  0  0  0  0  0  0  0  0  0
   13.3684   50.2809   41.6938 C   0  0  0  0  0  0  0  0  0  0  0  0
   15.9230   44.6088   42.5620 C   0  0  0  0  0  0  0  0  0  0  0  0
   14.9569   43.8766   42.8833 O   0  0  0  0  0  0  0  0  0  0  0  0
   16.6806   45.1680   43.5694 O   0  0  0  0  0  0  0  0  0  0  0  0
   21.7581   45.1742   38.9729 C   0  0  0  0  0  0  0  0  0  0  0  0
   21.0692   45.4989   37.9643 O   0  0  0  0  0  0  0  0  0  0  0  0
   22.9585   44.5409   38.7383 O   0  0  0  0  0  0  0  0  0  0  0  0
  1  2  2  0
  2  3  1  0
  2  4  1  0
  4  5  1  0
  6  5  1  1
  6  7  1  0
  7  8  1  0
  8  9  2  0
  8 10  1  0
 10 11  1  0
 11 12  1  6
 12 13  1  0
 13 14  1  0
 14 15  1  0
 15 16  2  0
 15 17  1  0
 17 18  1  0
 18 19  2  0
 19 20  1  0
 20 21  2  0
 21 22  1  0
 21 23  1  0
 23 24  2  0
 11 25  1  0
 25 26  2  0
 25 27  1  0
  6 28  1  0
 28 29  2  0
 28 30  1  0
 24 18  1  0
M  CHG  3   3  -1  27  -1  30  -1
M  END
>  <shape_align_shape_tanimoto>  (2) 
0.37486967456305303

>  <shape_align_color_tanimoto>  (2) 
0.10318831941179293

>  <metric>  (2) 
color

>  <metric_score>  (2) 
0.103

>  <template_pid>  (2) 
6H7Y

>  <template_shape_score>  (2) 
0.375

>  <template_color_score>  (2) 
0.103

>  <template_combo_score>  (2) 
0.239

$$$$
6H7Y_combo_pose
     RDKit          3D

 30 30  0  0  0  0  0  0  0  0999 V2000
   22.5093   48.2537   40.1403 O   0  0  0  0  0  0  0  0  0  0  0  0
   23.0843   47.6983   41.1261 C   0  0  0  0  0  0  0  0  0  0  0  0
   23.3534   48.5499   42.2074 O   0  0  0  0  0  0  0  0  0  0  0  0
   23.4543   46.2797   41.1689 C   0  0  0  0  0  0  0  0  0  0  0  0
   22.2611   45.3739   41.3908 C   0  0  0  0  0  0  0  0  0  0  0  0
   21.2298   45.4950   40.3213 C   0  0  2  0  0  0  0  0  0  0  0  0
   20.0844   44.6066   40.5644 N   0  0  0  0  0  0  0  0  0  0  0  0
   18.7667   45.1440   40.7297 C   0  0  0  0  0  0  0  0  0  0  0  0
   18.6424   46.3923   40.6578 O   0  0  0  0  0  0  0  0  0  0  0  0
   17.6534   44.2940   40.9646 N   0  0  0  0  0  0  0  0  0  0  0  0
   16.2835   44.8976   41.1338 C   0  0  1  0  0  0  0  0  0  0  0  0
   15.3446   44.2812   40.1880 C   0  0  0  0  0  0  0  0  0  0  0  0
   13.9300   44.7122   40.1508 C   0  0  0  0  0  0  0  0  0  0  0  0
   13.6216   46.1023   39.8020 C   0  0  0  0  0  0  0  0  0  0  0  0
   13.9917   47.2139   40.6473 C   0  0  0  0  0  0  0  0  0  0  0  0
   14.3709   47.2215   41.8263 O   0  0  0  0  0  0  0  0  0  0  0  0
   13.9138   48.5338   40.0392 N   0  0  0  0  0  0  0  0  0  0  0  0
   14.2879   49.6300   40.9000 C   0  0  0  0  0  0  0  0  0  0  0  0
   15.6313   49.9746   40.8692 C   0  0  0  0  0  0  0  0  0  0  0  0
   16.0871   51.0137   41.6620 C   0  0  0  0  0  0  0  0  0  0  0  0
   15.1675   51.6644   42.4554 C   0  0  0  0  0  0  0  0  0  0  0  0
   15.6238   52.6950   43.2412 F   0  0  0  0  0  0  0  0  0  0  0  0
   13.8235   51.3082   42.4766 C   0  0  0  0  0  0  0  0  0  0  0  0
   13.3684   50.2809   41.6938 C   0  0  0  0  0  0  0  0  0  0  0  0
   15.9230   44.6088   42.5620 C   0  0  0  0  0  0  0  0  0  0  0  0
   14.9569   43.8766   42.8833 O   0  0  0  0  0  0  0  0  0  0  0  0
   16.6806   45.1680   43.5694 O   0  0  0  0  0  0  0  0  0  0  0  0
   21.7581   45.1742   38.9729 C   0  0  0  0  0  0  0  0  0  0  0  0
   21.0692   45.4989   37.9643 O   0  0  0  0  0  0  0  0  0  0  0  0
   22.9585   44.5409   38.7383 O   0  0  0  0  0  0  0  0  0  0  0  0
  1  2  2  0
  2  3  1  0
  2  4  1  0
  4  5  1  0
  6  5  1  1
  6  7  1  0
  7  8  1  0
  8  9  2  0
  8 10  1  0
 10 11  1  0
 11 12  1  6
 12 13  1  0
 13 14  1  0
 14 15  1  0
 15 16  2  0
 15 17  1  0
 17 18  1  0
 18 19  2  0
 19 20  1  0
 20 21  2  0
 21 22  1  0
 21 23  1  0
 23 24  2  0
 11 25  1  0
 25 26  2  0
 25 27  1  0
  6 28  1  0
 28 29  2  0
 28 30  1  0
 24 18  1  0
M  CHG  3   3  -1  27  -1  30  -1
M  END
>  <shape_align_shape_tanimoto>  (3) 
0.37486967456305303

>  <shape_align_color_tanimoto>  (3) 
0.10318831941179293

>  <metric>  (3) 
combo

>  <metric_score>  (3) 
0.239

>  <template_pid>  (3) 
6H7Y

>  <template_shape_score>  (3) 
0.375

>  <template_color_score>  (3) 
0.103

>  <template_combo_score>  (3) 
0.239

$$$$
