6IBX_shape_pose
     RDKit          3D

 37 42  0  0  0  0  0  0  0  0999 V2000
   14.0285    6.3654    7.5562 C   0  0  0  0  0  0  0  0  0  0  0  0
   15.0722    7.1545    6.9182 N   0  0  0  0  0  0  0  0  0  0  0  0
   15.4955    7.0361    5.6496 C   0  0  0  0  0  0  0  0  0  0  0  0
   16.5054    7.9812    5.4560 C   0  0  0  0  0  0  0  0  0  0  0  0
   16.6437    8.6401    6.6511 C   0  0  0  0  0  0  0  0  0  0  0  0
   17.4883    9.6673    7.0795 C   0  0  0  0  0  0  0  0  0  0  0  0
   17.4279   10.1463    8.3762 C   0  0  0  0  0  0  0  0  0  0  0  0
   16.5395    9.6323    9.2900 C   0  0  0  0  0  0  0  0  0  0  0  0
   16.4457   10.0296   10.6809 C   0  0  0  0  0  0  0  0  0  0  0  0
   17.6331   10.0394   11.4052 C   0  0  0  0  0  0  0  0  0  0  0  0
   17.6607   10.3419   12.7679 C   0  0  0  0  0  0  0  0  0  0  0  0
   18.9122   10.2822   13.5005 N   0  0  0  0  0  0  0  0  0  0  0  0
   19.9903    9.7000   12.7356 C   0  0  0  0  0  0  0  0  0  0  0  0
   21.1104   10.4580   12.4619 C   0  0  0  0  0  0  0  0  0  0  0  0
   22.0679    9.9372   11.6957 N   0  0  0  0  0  0  0  0  0  0  0  0
   21.9715    8.6998   11.1848 C   0  0  0  0  0  0  0  0  0  0  0  0
   20.8633    7.9273   11.4464 C   0  0  0  0  0  0  0  0  0  0  0  0
   19.8321    8.4050   12.2365 C   0  0  0  0  0  0  0  0  0  0  0  0
   18.7060    7.5549   12.5919 C   0  0  0  0  0  0  0  0  0  0  0  0
   17.9833    7.7856   13.6078 O   0  0  0  0  0  0  0  0  0  0  0  0
   18.3341    6.4161   11.8253 N   0  0  0  0  0  0  0  0  0  0  0  0
   17.2025    5.6102   12.2348 C   0  0  1  0  0  0  0  0  0  0  0  0
   15.9109    6.1661   11.6348 C   0  0  0  0  0  0  0  0  0  0  0  0
   14.7779    5.5122   12.4113 C   0  0  0  0  0  0  0  0  0  0  0  0
   15.0384    4.0300   12.5852 C   0  0  0  0  0  0  0  0  0  0  0  0
   16.0253    3.5702   11.6138 N   0  0  2  0  0  0  0  0  0  0  0  0
   16.1453    2.1433   11.7340 C   0  0  0  0  0  0  0  0  0  0  0  0
   17.3181    4.1755   11.8642 C   0  0  0  0  0  0  0  0  0  0  0  0
   16.4731   10.6441   13.4102 C   0  0  0  0  0  0  0  0  0  0  0  0
   15.2580   10.6449   12.7069 C   0  0  0  0  0  0  0  0  0  0  0  0
   14.0925   10.9291   13.3220 N   0  0  0  0  0  0  0  0  0  0  0  0
   12.9596   10.9084   12.6104 C   0  0  0  0  0  0  0  0  0  0  0  0
   13.0034   10.5953   11.2516 C   0  0  0  0  0  0  0  0  0  0  0  0
   14.1424   10.3079   10.6059 N   0  0  0  0  0  0  0  0  0  0  0  0
   15.2726   10.3317   11.3304 C   0  0  0  0  0  0  0  0  0  0  0  0
   15.6845    8.6078    8.8844 C   0  0  0  0  0  0  0  0  0  0  0  0
   15.7515    8.1286    7.5705 C   0  0  0  0  0  0  0  0  0  0  0  0
  1  2  1  0
  2  3  1  0
  3  4  2  0
  4  5  1  0
  5  6  2  0
  6  7  1  0
  7  8  2  0
  8  9  1  0
  9 10  2  0
 10 11  1  0
 11 12  1  0
 12 13  1  0
 13 14  2  0
 14 15  1  0
 15 16  2  0
 16 17  1  0
 17 18  2  0
 18 19  1  0
 19 20  2  0
 19 21  1  0
 22 21  1  6
 22 23  1  0
 23 24  1  0
 24 25  1  0
 25 26  1  0
 26 27  1  1
 26 28  1  0
 11 29  2  0
 29 30  1  0
 30 31  2  0
 31 32  1  0
 32 33  2  0
 33 34  1  0
 34 35  2  0
  8 36  1  0
 36 37  2  0
 37  2  1  0
 37  5  1  0
 35  9  1  0
 18 13  1  0
 28 22  1  0
 35 30  1  0
M  CHG  1  26   1
M  END
>  <shape_align_shape_tanimoto>  (1) 
0.544351694244669

>  <shape_align_color_tanimoto>  (1) 
0.024736266643685223

>  <metric>  (1) 
shape

>  <metric_score>  (1) 
0.544

>  <template_pid>  (1) 
6IBX

>  <template_shape_score>  (1) 
0.544

>  <template_color_score>  (1) 
0.025

>  <template_combo_score>  (1) 
0.285

$$$$
6IBX_color_pose
     RDKit          3D

 37 42  0  0  0  0  0  0  0  0999 V2000
   13.0091    6.9868    7.3198 C   0  0  0  0  0  0  0  0  0  0  0  0
   14.1464    7.4247    6.5285 N   0  0  0  0  0  0  0  0  0  0  0  0
   14.3279    7.3752    5.1951 C   0  0  0  0  0  0  0  0  0  0  0  0
   15.5499    7.8966    4.8434 C   0  0  0  0  0  0  0  0  0  0  0  0
   16.1531    8.2896    6.0397 C   0  0  0  0  0  0  0  0  0  0  0  0
   17.3896    8.8808    6.3226 C   0  0  0  0  0  0  0  0  0  0  0  0
   17.7511    9.1750    7.6250 C   0  0  0  0  0  0  0  0  0  0  0  0
   16.8683    8.8741    8.6439 C   0  0  0  0  0  0  0  0  0  0  0  0
   17.2567    9.1887   10.0155 C   0  0  0  0  0  0  0  0  0  0  0  0
   18.5173    8.9027   10.5195 C   0  0  0  0  0  0  0  0  0  0  0  0
   18.8298    9.2229   11.8194 C   0  0  0  0  0  0  0  0  0  0  0  0
   20.0929    8.9408   12.4166 N   0  0  0  0  0  0  0  0  0  0  0  0
   20.5002    9.5236   13.6367 C   0  0  0  0  0  0  0  0  0  0  0  0
   20.6880    8.6391   14.7042 C   0  0  0  0  0  0  0  0  0  0  0  0
   21.0733    9.0855   15.9271 N   0  0  0  0  0  0  0  0  0  0  0  0
   21.2766   10.4015   16.1104 C   0  0  0  0  0  0  0  0  0  0  0  0
   21.0940   11.2996   15.0527 C   0  0  0  0  0  0  0  0  0  0  0  0
   20.7047   10.8778   13.7999 C   0  0  0  0  0  0  0  0  0  0  0  0
   20.5760   11.8144   12.7000 C   0  0  0  0  0  0  0  0  0  0  0  0
   20.3495   11.4686   11.5068 O   0  0  0  0  0  0  0  0  0  0  0  0
   20.7027   13.2184   12.9161 N   0  0  0  0  0  0  0  0  0  0  0  0
   20.5730   14.1097   11.7985 C   0  0  1  0  0  0  0  0  0  0  0  0
   19.5491   15.1772   11.8990 C   0  0  0  0  0  0  0  0  0  0  0  0
   19.8022   16.1910   12.9640 C   0  0  0  0  0  0  0  0  0  0  0  0
   21.1796   16.2177   13.5144 C   0  0  0  0  0  0  0  0  0  0  0  0
   22.1873   15.4586   12.8944 N   0  0  2  0  0  0  0  0  0  0  0  0
   23.3826   16.2929   12.6539 C   0  0  0  0  0  0  0  0  0  0  0  0
   21.9006   14.8257   11.6525 C   0  0  0  0  0  0  0  0  0  0  0  0
   17.8482    9.8294   12.5802 C   0  0  0  0  0  0  0  0  0  0  0  0
   16.5894   10.1241   12.1057 C   0  0  0  0  0  0  0  0  0  0  0  0
   15.7166   10.7156   12.9422 N   0  0  0  0  0  0  0  0  0  0  0  0
   14.4846   10.9979   12.4619 C   0  0  0  0  0  0  0  0  0  0  0  0
   14.1467   10.6809   11.1450 C   0  0  0  0  0  0  0  0  0  0  0  0
   15.0574   10.0885   10.3454 N   0  0  0  0  0  0  0  0  0  0  0  0
   16.2840    9.7993   10.7988 C   0  0  0  0  0  0  0  0  0  0  0  0
   15.6462    8.2882    8.3496 C   0  0  0  0  0  0  0  0  0  0  0  0
   15.2612    7.9844    7.0561 C   0  0  0  0  0  0  0  0  0  0  0  0
  1  2  1  0
  2  3  1  0
  3  4  2  0
  4  5  1  0
  5  6  2  0
  6  7  1  0
  7  8  2  0
  8  9  1  0
  9 10  2  0
 10 11  1  0
 11 12  1  0
 12 13  1  0
 13 14  2  0
 14 15  1  0
 15 16  2  0
 16 17  1  0
 17 18  2  0
 18 19  1  0
 19 20  2  0
 19 21  1  0
 22 21  1  1
 22 23  1  0
 23 24  1  0
 24 25  1  0
 25 26  1  0
 26 27  1  6
 26 28  1  0
 11 29  2  0
 29 30  1  0
 30 31  2  0
 31 32  1  0
 32 33  2  0
 33 34  1  0
 34 35  2  0
  8 36  1  0
 36 37  2  0
 37  2  1  0
 37  5  1  0
 35  9  1  0
 18 13  1  0
 28 22  1  0
 35 30  1  0
M  CHG  1  26   1
M  END
>  <shape_align_shape_tanimoto>  (2) 
0.47768552411665038

>  <shape_align_color_tanimoto>  (2) 
0.10722708165153373

>  <metric>  (2) 
color

>  <metric_score>  (2) 
0.107

>  <template_pid>  (2) 
6IBX

>  <template_shape_score>  (2) 
0.478

>  <template_color_score>  (2) 
0.107

>  <template_combo_score>  (2) 
0.292

$$$$
6IBX_combo_pose
     RDKit          3D

 37 42  0  0  0  0  0  0  0  0999 V2000
   16.8269    5.6404    6.1391 C   0  0  0  0  0  0  0  0  0  0  0  0
   16.2105    6.9369    5.9293 N   0  0  0  0  0  0  0  0  0  0  0  0
   15.6216    7.2932    4.7625 C   0  0  0  0  0  0  0  0  0  0  0  0
   15.1418    8.5789    4.9020 C   0  0  0  0  0  0  0  0  0  0  0  0
   15.4668    8.9614    6.1799 C   0  0  0  0  0  0  0  0  0  0  0  0
   15.2370   10.1382    6.8611 C   0  0  0  0  0  0  0  0  0  0  0  0
   15.6570   10.3118    8.1617 C   0  0  0  0  0  0  0  0  0  0  0  0
   16.3211    9.2805    8.7880 C   0  0  0  0  0  0  0  0  0  0  0  0
   16.7644    9.4751   10.1730 C   0  0  0  0  0  0  0  0  0  0  0  0
   18.0415    9.0774   10.5048 C   0  0  0  0  0  0  0  0  0  0  0  0
   18.5682    9.2114   11.7792 C   0  0  0  0  0  0  0  0  0  0  0  0
   19.8693    8.7758   12.0897 N   0  0  0  0  0  0  0  0  0  0  0  0
   20.5851    9.0962   13.2679 C   0  0  0  0  0  0  0  0  0  0  0  0
   20.8951    8.0302   14.1057 C   0  0  0  0  0  0  0  0  0  0  0  0
   21.5711    8.1858   15.2576 N   0  0  0  0  0  0  0  0  0  0  0  0
   21.9705    9.4143   15.6290 C   0  0  0  0  0  0  0  0  0  0  0  0
   21.6711   10.5043   14.8019 C   0  0  0  0  0  0  0  0  0  0  0  0
   20.9810   10.3585   13.6204 C   0  0  0  0  0  0  0  0  0  0  0  0
   20.7267   11.5027   12.7548 C   0  0  0  0  0  0  0  0  0  0  0  0
   20.1957   11.4045   11.6131 O   0  0  0  0  0  0  0  0  0  0  0  0
   21.0733   12.8176   13.1655 N   0  0  0  0  0  0  0  0  0  0  0  0
   20.8039   13.9218   12.2766 C   0  0  1  0  0  0  0  0  0  0  0  0
   20.0708   15.0559   12.8941 C   0  0  0  0  0  0  0  0  0  0  0  0
   20.0411   16.1892   11.8881 C   0  0  0  0  0  0  0  0  0  0  0  0
   20.6334   15.7765   10.5605 C   0  0  0  0  0  0  0  0  0  0  0  0
   21.9653   15.2325   10.6784 N   0  0  2  0  0  0  0  0  0  0  0  0
   22.1601   14.2876    9.5670 C   0  0  0  0  0  0  0  0  0  0  0  0
   22.1822   14.4770   11.8913 C   0  0  0  0  0  0  0  0  0  0  0  0
   17.7071    9.7852   12.7225 C   0  0  0  0  0  0  0  0  0  0  0  0
   16.4289   10.1844   12.3951 C   0  0  0  0  0  0  0  0  0  0  0  0
   15.6230   10.7343   13.3270 N   0  0  0  0  0  0  0  0  0  0  0  0
   14.3693   11.1370   13.0485 C   0  0  0  0  0  0  0  0  0  0  0  0
   13.8971   10.9760   11.7502 C   0  0  0  0  0  0  0  0  0  0  0  0
   14.6925   10.4261   10.8026 N   0  0  0  0  0  0  0  0  0  0  0  0
   15.9396   10.0363   11.1210 C   0  0  0  0  0  0  0  0  0  0  0  0
   16.5565    8.1011    8.1190 C   0  0  0  0  0  0  0  0  0  0  0  0
   16.1294    7.9389    6.8120 C   0  0  0  0  0  0  0  0  0  0  0  0
  1  2  1  0
  2  3  1  0
  3  4  2  0
  4  5  1  0
  5  6  2  0
  6  7  1  0
  7  8  2  0
  8  9  1  0
  9 10  2  0
 10 11  1  0
 11 12  1  0
 12 13  1  0
 13 14  2  0
 14 15  1  0
 15 16  2  0
 16 17  1  0
 17 18  2  0
 18 19  1  0
 19 20  2  0
 19 21  1  0
 22 21  1  1
 22 23  1  0
 23 24  1  0
 24 25  1  0
 25 26  1  0
 26 27  1  6
 26 28  1  0
 11 29  2  0
 29 30  1  0
 30 31  2  0
 31 32  1  0
 32 33  2  0
 33 34  1  0
 34 35  2  0
  8 36  1  0
 36 37  2  0
 37  2  1  0
 37  5  1  0
 35  9  1  0
 18 13  1  0
 28 22  1  0
 35 30  1  0
M  CHG  1  26   1
M  END
>  <shape_align_shape_tanimoto>  (3) 
0.51929720105008115

>  <shape_align_color_tanimoto>  (3) 
0.073918632410849144

>  <metric>  (3) 
combo

>  <metric_score>  (3) 
0.297

>  <template_pid>  (3) 
6IBX

>  <template_shape_score>  (3) 
0.519

>  <template_color_score>  (3) 
0.074

>  <template_combo_score>  (3) 
0.297

$$$$
