2WZM_shape_pose
     RDKit          3D

 39 42  0  0  0  0  0  0  0  0999 V2000
  -36.4334   92.7178   21.9907 N   0  0  0  0  0  0  0  0  0  0  0  0
  -36.1124   92.6979   20.5894 C   0  0  0  0  0  0  0  0  0  0  0  0
  -37.0772   92.9836   19.6671 N   0  0  0  0  0  0  0  0  0  0  0  0
  -36.7498   92.9585   18.3468 C   0  0  0  0  0  0  0  0  0  0  0  0
  -35.4796   92.6529   17.9592 N   0  0  0  0  0  0  0  0  0  0  0  0
  -34.5036   92.3660   18.8468 C   0  0  0  0  0  0  0  0  0  0  0  0
  -34.8247   92.3887   20.1848 C   0  0  0  0  0  0  0  0  0  0  0  0
  -33.6802   92.0697   20.8262 N   0  0  0  0  0  0  0  0  0  0  0  0
  -32.6904   91.8579   19.9258 C   0  0  0  0  0  0  0  0  0  0  0  0
  -33.1964   92.0411   18.6841 N   0  0  0  0  0  0  0  0  0  0  0  0
  -32.5080   91.9223   17.4100 C   0  0  2  0  0  0  0  0  0  0  0  0
  -31.5188   90.9786   17.3832 O   0  0  0  0  0  0  0  0  0  0  0  0
  -30.3347   91.5244   16.9742 C   0  0  2  0  0  0  0  0  0  0  0  0
  -29.4103   91.9546   18.0882 C   0  0  0  0  0  0  0  0  0  0  0  0
  -29.0406   90.9291   18.9182 O   0  0  0  0  0  0  0  0  0  0  0  0
  -28.0051   91.4332   20.1588 P   0  0  1  0  0  5  0  0  0  0  0  0
  -26.6689   91.8608   19.5539 O   0  0  0  0  0  0  0  0  0  0  0  0
  -28.6485   92.6393   21.1186 O   0  0  0  0  0  0  0  0  0  0  0  0
  -27.6711   90.1103   21.1594 O   0  0  0  0  0  0  0  0  0  0  0  0
  -29.1620   89.3853   21.5071 P   0  0  2  0  0  5  0  0  0  0  0  0
  -29.8785   89.2798   20.1586 O   0  0  0  0  0  0  0  0  0  0  0  0
  -30.0657   90.2862   22.5947 O   0  0  0  0  0  0  0  0  0  0  0  0
  -28.9771   87.8172   22.1275 O   0  0  0  0  0  0  0  0  0  0  0  0
  -30.2169   87.1958   22.0518 C   0  0  0  0  0  0  0  0  0  0  0  0
  -30.1716   85.7645   22.5874 C   0  0  1  0  0  0  0  0  0  0  0  0
  -31.4145   85.1669   22.5021 O   0  0  0  0  0  0  0  0  0  0  0  0
  -31.2905   83.9487   21.8761 C   0  0  0  0  0  0  0  0  0  0  0  0
  -30.2143   84.2178   20.8395 C   0  0  2  0  0  0  0  0  0  0  0  0
  -29.6584   83.0424   20.3579 O   0  0  0  0  0  0  0  0  0  0  0  0
  -29.2162   84.9865   21.7144 C   0  0  2  0  0  0  0  0  0  0  0  0
  -28.6024   84.0216   22.5008 O   0  0  0  0  0  0  0  0  0  0  0  0
  -30.6932   92.7666   16.1848 C   0  0  1  0  0  0  0  0  0  0  0  0
  -31.0422   92.4219   14.8825 O   0  0  0  0  0  0  0  0  0  0  0  0
  -31.9193   93.2339   16.9373 C   0  0  1  0  0  0  0  0  0  0  0  0
  -32.7962   93.7868   16.0262 O   0  0  0  0  0  0  0  0  0  0  0  0
  -33.3079   95.3304   16.3562 P   0  0  0  0  0  0  0  0  0  0  0  0
  -34.8206   95.3466   16.4239 O   0  0  0  0  0  0  0  0  0  0  0  0
  -32.7261   95.9620   17.7950 O   0  0  0  0  0  0  0  0  0  0  0  0
  -32.8873   96.4299   15.1256 O   0  0  0  0  0  0  0  0  0  0  0  0
  1  2  1  0
  2  3  2  0
  3  4  1  0
  4  5  2  0
  5  6  1  0
  6  7  2  0
  7  8  1  0
  8  9  2  0
  9 10  1  0
 11 10  1  1
 11 12  1  0
 12 13  1  0
 13 14  1  1
 14 15  1  0
 15 16  1  0
 16 17  2  0
 16 18  1  1
 16 19  1  0
 19 20  1  0
 20 21  2  0
 20 22  1  1
 20 23  1  0
 23 24  1  0
 25 24  1  6
 25 26  1  0
 26 27  1  0
 27 28  1  0
 28 29  1  1
 28 30  1  0
 30 31  1  1
 13 32  1  0
 32 33  1  6
 32 34  1  0
 34 35  1  6
 35 36  1  0
 36 37  2  0
 36 38  1  0
 36 39  1  0
  7  2  1  0
 34 11  1  0
 10  6  1  0
 30 25  1  0
M  END
>  <shape_align_shape_tanimoto>  (1) 
0.50527909120529024

>  <shape_align_color_tanimoto>  (1) 
0.065926826994710239

>  <metric>  (1) 
shape

>  <metric_score>  (1) 
0.505

>  <template_pid>  (1) 
2WZM

>  <template_shape_score>  (1) 
0.505

>  <template_color_score>  (1) 
0.066

>  <template_combo_score>  (1) 
0.286

$$$$
2WZM_color_pose
     RDKit          3D

 39 42  0  0  0  0  0  0  0  0999 V2000
  -36.6323   91.8390   21.0599 N   0  0  0  0  0  0  0  0  0  0  0  0
  -35.8435   92.3437   19.9789 C   0  0  0  0  0  0  0  0  0  0  0  0
  -36.4042   93.0492   18.9676 N   0  0  0  0  0  0  0  0  0  0  0  0
  -35.6175   93.5118   17.9577 C   0  0  0  0  0  0  0  0  0  0  0  0
  -34.2931   93.2784   17.9503 N   0  0  0  0  0  0  0  0  0  0  0  0
  -33.7192   92.5864   18.9353 C   0  0  0  0  0  0  0  0  0  0  0  0
  -34.4850   92.0971   19.9835 C   0  0  0  0  0  0  0  0  0  0  0  0
  -33.6651   91.4536   20.8134 N   0  0  0  0  0  0  0  0  0  0  0  0
  -32.4057   91.5170   20.3292 C   0  0  0  0  0  0  0  0  0  0  0  0
  -32.4381   92.2113   19.1779 N   0  0  0  0  0  0  0  0  0  0  0  0
  -31.3352   92.5387   18.2991 C   0  0  2  0  0  0  0  0  0  0  0  0
  -31.7682   92.7924   17.0021 O   0  0  0  0  0  0  0  0  0  0  0  0
  -31.5106   91.6744   16.2511 C   0  0  2  0  0  0  0  0  0  0  0  0
  -32.4455   90.5082   16.5492 C   0  0  0  0  0  0  0  0  0  0  0  0
  -32.1070   89.4196   15.7392 O   0  0  0  0  0  0  0  0  0  0  0  0
  -33.1145   88.0963   16.0310 P   0  0  1  0  0  5  0  0  0  0  0  0
  -33.4613   87.4707   14.7105 O   0  0  0  0  0  0  0  0  0  0  0  0
  -32.1693   86.9571   16.8829 O   0  0  0  0  0  0  0  0  0  0  0  0
  -34.4552   88.5520   16.9373 O   0  0  0  0  0  0  0  0  0  0  0  0
  -34.6482   87.5858   18.3098 P   0  0  2  0  0  5  0  0  0  0  0  0
  -34.7957   86.1238   17.9874 O   0  0  0  0  0  0  0  0  0  0  0  0
  -36.0813   88.0768   19.0710 O   0  0  0  0  0  0  0  0  0  0  0  0
  -33.3531   87.8528   19.3650 O   0  0  0  0  0  0  0  0  0  0  0  0
  -33.0983   86.7555   20.1898 C   0  0  0  0  0  0  0  0  0  0  0  0
  -31.9311   87.1266   21.0700 C   0  0  1  0  0  0  0  0  0  0  0  0
  -32.2072   88.2454   21.8539 O   0  0  0  0  0  0  0  0  0  0  0  0
  -31.1873   88.2829   22.7865 C   0  0  0  0  0  0  0  0  0  0  0  0
  -30.7125   86.8752   23.0211 C   0  0  2  0  0  0  0  0  0  0  0  0
  -29.4845   86.7143   22.3558 O   0  0  0  0  0  0  0  0  0  0  0  0
  -31.7317   86.0952   22.1825 C   0  0  2  0  0  0  0  0  0  0  0  0
  -31.2521   84.8923   21.7293 O   0  0  0  0  0  0  0  0  0  0  0  0
  -30.0941   91.3183   16.7155 C   0  0  1  0  0  0  0  0  0  0  0  0
  -29.1980   92.2300   16.2048 O   0  0  0  0  0  0  0  0  0  0  0  0
  -30.2738   91.4963   18.2235 C   0  0  1  0  0  0  0  0  0  0  0  0
  -29.0859   91.9328   18.8108 O   0  0  0  0  0  0  0  0  0  0  0  0
  -28.5282   90.8431   19.9613 P   0  0  0  0  0  0  0  0  0  0  0  0
  -29.2593   89.5196   19.8882 O   0  0  0  0  0  0  0  0  0  0  0  0
  -26.8657   90.5633   19.7643 O   0  0  0  0  0  0  0  0  0  0  0  0
  -28.7921   91.4514   21.5161 O   0  0  0  0  0  0  0  0  0  0  0  0
  1  2  1  0
  2  3  2  0
  3  4  1  0
  4  5  2  0
  5  6  1  0
  6  7  2  0
  7  8  1  0
  8  9  2  0
  9 10  1  0
 11 10  1  1
 11 12  1  0
 12 13  1  0
 13 14  1  1
 14 15  1  0
 15 16  1  0
 16 17  2  0
 16 18  1  1
 16 19  1  0
 19 20  1  0
 20 21  2  0
 20 22  1  1
 20 23  1  0
 23 24  1  0
 25 24  1  6
 25 26  1  0
 26 27  1  0
 27 28  1  0
 28 29  1  6
 28 30  1  0
 30 31  1  6
 13 32  1  0
 32 33  1  6
 32 34  1  0
 34 35  1  6
 35 36  1  0
 36 37  2  0
 36 38  1  0
 36 39  1  0
  7  2  1  0
 34 11  1  0
 10  6  1  0
 30 25  1  0
M  END
>  <shape_align_shape_tanimoto>  (2) 
0.47789474888038586

>  <shape_align_color_tanimoto>  (2) 
0.098735818391198507

>  <metric>  (2) 
color

>  <metric_score>  (2) 
0.099

>  <template_pid>  (2) 
2WZM

>  <template_shape_score>  (2) 
0.478

>  <template_color_score>  (2) 
0.099

>  <template_combo_score>  (2) 
0.288

$$$$
2WZM_combo_pose
     RDKit          3D

 39 42  0  0  0  0  0  0  0  0999 V2000
  -36.6323   91.8390   21.0599 N   0  0  0  0  0  0  0  0  0  0  0  0
  -35.8435   92.3437   19.9789 C   0  0  0  0  0  0  0  0  0  0  0  0
  -36.4042   93.0492   18.9676 N   0  0  0  0  0  0  0  0  0  0  0  0
  -35.6175   93.5118   17.9577 C   0  0  0  0  0  0  0  0  0  0  0  0
  -34.2931   93.2784   17.9503 N   0  0  0  0  0  0  0  0  0  0  0  0
  -33.7192   92.5864   18.9353 C   0  0  0  0  0  0  0  0  0  0  0  0
  -34.4850   92.0971   19.9835 C   0  0  0  0  0  0  0  0  0  0  0  0
  -33.6651   91.4536   20.8134 N   0  0  0  0  0  0  0  0  0  0  0  0
  -32.4057   91.5170   20.3292 C   0  0  0  0  0  0  0  0  0  0  0  0
  -32.4381   92.2113   19.1779 N   0  0  0  0  0  0  0  0  0  0  0  0
  -31.3352   92.5387   18.2991 C   0  0  2  0  0  0  0  0  0  0  0  0
  -31.7682   92.7924   17.0021 O   0  0  0  0  0  0  0  0  0  0  0  0
  -31.5106   91.6744   16.2511 C   0  0  2  0  0  0  0  0  0  0  0  0
  -32.4455   90.5082   16.5492 C   0  0  0  0  0  0  0  0  0  0  0  0
  -32.1070   89.4196   15.7392 O   0  0  0  0  0  0  0  0  0  0  0  0
  -33.1145   88.0963   16.0310 P   0  0  1  0  0  5  0  0  0  0  0  0
  -33.4613   87.4707   14.7105 O   0  0  0  0  0  0  0  0  0  0  0  0
  -32.1693   86.9571   16.8829 O   0  0  0  0  0  0  0  0  0  0  0  0
  -34.4552   88.5520   16.9373 O   0  0  0  0  0  0  0  0  0  0  0  0
  -34.6482   87.5858   18.3098 P   0  0  2  0  0  5  0  0  0  0  0  0
  -34.7957   86.1238   17.9874 O   0  0  0  0  0  0  0  0  0  0  0  0
  -36.0813   88.0768   19.0710 O   0  0  0  0  0  0  0  0  0  0  0  0
  -33.3531   87.8528   19.3650 O   0  0  0  0  0  0  0  0  0  0  0  0
  -33.0983   86.7555   20.1898 C   0  0  0  0  0  0  0  0  0  0  0  0
  -31.9311   87.1266   21.0700 C   0  0  1  0  0  0  0  0  0  0  0  0
  -32.2072   88.2454   21.8539 O   0  0  0  0  0  0  0  0  0  0  0  0
  -31.1873   88.2829   22.7865 C   0  0  0  0  0  0  0  0  0  0  0  0
  -30.7125   86.8752   23.0211 C   0  0  2  0  0  0  0  0  0  0  0  0
  -29.4845   86.7143   22.3558 O   0  0  0  0  0  0  0  0  0  0  0  0
  -31.7317   86.0952   22.1825 C   0  0  2  0  0  0  0  0  0  0  0  0
  -31.2521   84.8923   21.7293 O   0  0  0  0  0  0  0  0  0  0  0  0
  -30.0941   91.3183   16.7155 C   0  0  1  0  0  0  0  0  0  0  0  0
  -29.1980   92.2300   16.2048 O   0  0  0  0  0  0  0  0  0  0  0  0
  -30.2738   91.4963   18.2235 C   0  0  1  0  0  0  0  0  0  0  0  0
  -29.0859   91.9328   18.8108 O   0  0  0  0  0  0  0  0  0  0  0  0
  -28.5282   90.8431   19.9613 P   0  0  0  0  0  0  0  0  0  0  0  0
  -29.2593   89.5196   19.8882 O   0  0  0  0  0  0  0  0  0  0  0  0
  -26.8657   90.5633   19.7643 O   0  0  0  0  0  0  0  0  0  0  0  0
  -28.7921   91.4514   21.5161 O   0  0  0  0  0  0  0  0  0  0  0  0
  1  2  1  0
  2  3  2  0
  3  4  1  0
  4  5  2  0
  5  6  1  0
  6  7  2  0
  7  8  1  0
  8  9  2  0
  9 10  1  0
 11 10  1  1
 11 12  1  0
 12 13  1  0
 13 14  1  1
 14 15  1  0
 15 16  1  0
 16 17  2  0
 16 18  1  1
 16 19  1  0
 19 20  1  0
 20 21  2  0
 20 22  1  1
 20 23  1  0
 23 24  1  0
 25 24  1  6
 25 26  1  0
 26 27  1  0
 27 28  1  0
 28 29  1  6
 28 30  1  0
 30 31  1  6
 13 32  1  0
 32 33  1  6
 32 34  1  0
 34 35  1  6
 35 36  1  0
 36 37  2  0
 36 38  1  0
 36 39  1  0
  7  2  1  0
 34 11  1  0
 10  6  1  0
 30 25  1  0
M  END
>  <shape_align_shape_tanimoto>  (3) 
0.47789474888038586

>  <shape_align_color_tanimoto>  (3) 
0.098735818391198507

>  <metric>  (3) 
combo

>  <metric_score>  (3) 
0.288

>  <template_pid>  (3) 
2WZM

>  <template_shape_score>  (3) 
0.478

>  <template_color_score>  (3) 
0.099

>  <template_combo_score>  (3) 
0.288

$$$$
