2GM9_shape_pose
     RDKit          3D

 23 26  0  0  0  0  0  0  0  0999 V2000
   33.4935   24.3888   30.3672 O   0  0  0  0  0  0  0  0  0  0  0  0
   34.6894   24.1142   30.0811 C   0  0  0  0  0  0  0  0  0  0  0  0
   34.9658   23.3801   28.9087 N   0  0  0  0  0  0  0  0  0  0  0  0
   33.8743   22.9636   28.0694 C   0  0  2  0  0  0  0  0  0  0  0  0
   33.8995   21.4528   27.9989 C   0  0  0  0  0  0  0  0  0  0  0  0
   32.9116   21.0035   27.0039 C   0  0  0  0  0  0  0  0  0  0  0  0
   32.3658   19.7382   27.1653 C   0  0  0  0  0  0  0  0  0  0  0  0
   31.4328   19.2120   26.2969 C   0  0  0  0  0  0  0  0  0  0  0  0
   31.0103   19.9647   25.2111 C   0  0  0  0  0  0  0  0  0  0  0  0
   31.5464   21.2349   25.0336 C   0  0  0  0  0  0  0  0  0  0  0  0
   32.4857   21.7337   25.9295 C   0  0  0  0  0  0  0  0  0  0  0  0
   33.0303   23.0405   25.7377 N   0  0  0  0  0  0  0  0  0  0  0  0
   33.9879   23.5002   26.6850 C   0  0  0  0  0  0  0  0  0  0  0  0
   34.8773   24.3225   26.3375 O   0  0  0  0  0  0  0  0  0  0  0  0
   35.7700   24.5535   30.9565 C   0  0  0  0  0  0  0  0  0  0  0  0
   35.6240   25.2736   32.1240 C   0  0  0  0  0  0  0  0  0  0  0  0
   36.9050   25.5017   32.6790 C   0  0  0  0  0  0  0  0  0  0  0  0
   37.4081   26.1210   33.7707 C   0  0  0  0  0  0  0  0  0  0  0  0
   38.7742   26.0878   33.9064 C   0  0  0  0  0  0  0  0  0  0  0  0
   39.8636   26.7575   35.1630 Cl  0  0  0  0  0  0  0  0  0  0  0  0
   39.3895   25.1440   32.4351 S   0  0  0  0  0  0  0  0  0  0  0  0
   37.7484   24.9032   31.8091 C   0  0  0  0  0  0  0  0  0  0  0  0
   37.0705   24.3288   30.7671 N   0  0  0  0  0  0  0  0  0  0  0  0
  1  2  2  0
  2  3  1  0
  4  3  1  1
  4  5  1  0
  5  6  1  0
  6  7  2  0
  7  8  1  0
  8  9  2  0
  9 10  1  0
 10 11  2  0
 11 12  1  0
 12 13  1  0
 13 14  2  0
  2 15  1  0
 15 16  2  0
 16 17  1  0
 17 18  1  0
 18 19  2  0
 19 20  1  0
 19 21  1  0
 21 22  1  0
 22 23  1  0
 13  4  1  0
 23 15  1  0
 11  6  1  0
 22 17  2  0
M  END
>  <shape_align_shape_tanimoto>  (1) 
0.80976215279887442

>  <shape_align_color_tanimoto>  (1) 
0.019851454842721803

>  <metric>  (1) 
shape

>  <metric_score>  (1) 
0.810

>  <template_pid>  (1) 
2GM9

>  <template_shape_score>  (1) 
0.810

>  <template_color_score>  (1) 
0.020

>  <template_combo_score>  (1) 
0.415

$$$$
2GM9_color_pose
     RDKit          3D

 23 26  0  0  0  0  0  0  0  0999 V2000
   32.8113   24.8871   28.5420 O   0  0  0  0  0  0  0  0  0  0  0  0
   33.6546   23.9821   28.6441 C   0  0  0  0  0  0  0  0  0  0  0  0
   33.5143   22.7941   27.8758 N   0  0  0  0  0  0  0  0  0  0  0  0
   32.3971   22.5879   26.9520 C   0  0  2  0  0  0  0  0  0  0  0  0
   31.6506   21.3348   27.3512 C   0  0  0  0  0  0  0  0  0  0  0  0
   32.5740   20.1803   27.2247 C   0  0  0  0  0  0  0  0  0  0  0  0
   32.3944   19.0696   28.0499 C   0  0  0  0  0  0  0  0  0  0  0  0
   33.2384   18.0021   27.9376 C   0  0  0  0  0  0  0  0  0  0  0  0
   34.2879   17.9485   27.0351 C   0  0  0  0  0  0  0  0  0  0  0  0
   34.4698   19.0447   26.2166 C   0  0  0  0  0  0  0  0  0  0  0  0
   33.6158   20.1236   26.3310 C   0  0  0  0  0  0  0  0  0  0  0  0
   33.8458   21.2306   25.4678 N   0  0  0  0  0  0  0  0  0  0  0  0
   32.9570   22.3470   25.5957 C   0  0  0  0  0  0  0  0  0  0  0  0
   32.6875   23.0616   24.5970 O   0  0  0  0  0  0  0  0  0  0  0  0
   34.7823   24.1519   29.5550 C   0  0  0  0  0  0  0  0  0  0  0  0
   35.0282   25.2513   30.3501 C   0  0  0  0  0  0  0  0  0  0  0  0
   36.2177   25.0209   31.0810 C   0  0  0  0  0  0  0  0  0  0  0  0
   36.9864   25.6323   31.9802 C   0  0  0  0  0  0  0  0  0  0  0  0
   38.1093   25.0504   32.4657 C   0  0  0  0  0  0  0  0  0  0  0  0
   39.2978   25.5101   33.5834 Cl  0  0  0  0  0  0  0  0  0  0  0  0
   38.1433   23.3840   31.5549 S   0  0  0  0  0  0  0  0  0  0  0  0
   36.5797   23.7634   30.6370 C   0  0  0  0  0  0  0  0  0  0  0  0
   35.7561   23.2506   29.7534 N   0  0  0  0  0  0  0  0  0  0  0  0
  1  2  2  0
  2  3  1  0
  4  3  1  1
  4  5  1  0
  5  6  1  0
  6  7  2  0
  7  8  1  0
  8  9  2  0
  9 10  1  0
 10 11  2  0
 11 12  1  0
 12 13  1  0
 13 14  2  0
  2 15  1  0
 15 16  2  0
 16 17  1  0
 17 18  1  0
 18 19  2  0
 19 20  1  0
 19 21  1  0
 21 22  1  0
 22 23  1  0
 13  4  1  0
 23 15  1  0
 11  6  1  0
 22 17  2  0
M  END
>  <shape_align_shape_tanimoto>  (2) 
0.62147830180386598

>  <shape_align_color_tanimoto>  (2) 
0.12558540570711943

>  <metric>  (2) 
color

>  <metric_score>  (2) 
0.126

>  <template_pid>  (2) 
2GM9

>  <template_shape_score>  (2) 
0.621

>  <template_color_score>  (2) 
0.126

>  <template_combo_score>  (2) 
0.374

$$$$
2GM9_combo_pose
     RDKit          3D

 23 26  0  0  0  0  0  0  0  0999 V2000
   33.4457   24.1857   29.9594 O   0  0  0  0  0  0  0  0  0  0  0  0
   34.6491   23.8666   29.7475 C   0  0  0  0  0  0  0  0  0  0  0  0
   34.9607   23.0527   28.6345 N   0  0  0  0  0  0  0  0  0  0  0  0
   33.8896   22.6131   27.7764 C   0  0  2  0  0  0  0  0  0  0  0  0
   33.7375   21.1285   27.7156 C   0  0  0  0  0  0  0  0  0  0  0  0
   32.6475   20.8013   26.7668 C   0  0  0  0  0  0  0  0  0  0  0  0
   31.9407   19.6345   26.9644 C   0  0  0  0  0  0  0  0  0  0  0  0
   30.9099   19.2652   26.1100 C   0  0  0  0  0  0  0  0  0  0  0  0
   30.5847   20.0788   25.0432 C   0  0  0  0  0  0  0  0  0  0  0  0
   31.2791   21.2665   24.8137 C   0  0  0  0  0  0  0  0  0  0  0  0
   32.2946   21.5854   25.6938 C   0  0  0  0  0  0  0  0  0  0  0  0
   33.0004   22.7993   25.4639 N   0  0  0  0  0  0  0  0  0  0  0  0
   34.0422   23.1164   26.3850 C   0  0  0  0  0  0  0  0  0  0  0  0
   35.0334   23.7952   26.0014 O   0  0  0  0  0  0  0  0  0  0  0  0
   35.6898   24.3445   30.6548 C   0  0  0  0  0  0  0  0  0  0  0  0
   35.4994   25.1396   31.7657 C   0  0  0  0  0  0  0  0  0  0  0  0
   36.7596   25.3719   32.3634 C   0  0  0  0  0  0  0  0  0  0  0  0
   37.2751   26.0235   33.4132 C   0  0  0  0  0  0  0  0  0  0  0  0
   38.6075   25.9976   33.6521 C   0  0  0  0  0  0  0  0  0  0  0  0
   39.6330   26.6841   34.8582 Cl  0  0  0  0  0  0  0  0  0  0  0  0
   39.2944   24.9284   32.2476 S   0  0  0  0  0  0  0  0  0  0  0  0
   37.6067   24.6776   31.5345 C   0  0  0  0  0  0  0  0  0  0  0  0
   36.9962   24.0703   30.5292 N   0  0  0  0  0  0  0  0  0  0  0  0
  1  2  2  0
  2  3  1  0
  4  3  1  1
  4  5  1  0
  5  6  1  0
  6  7  2  0
  7  8  1  0
  8  9  2  0
  9 10  1  0
 10 11  2  0
 11 12  1  0
 12 13  1  0
 13 14  2  0
  2 15  1  0
 15 16  2  0
 16 17  1  0
 17 18  1  0
 18 19  2  0
 19 20  1  0
 19 21  1  0
 21 22  1  0
 22 23  1  0
 13  4  1  0
 23 15  1  0
 11  6  1  0
 22 17  2  0
M  END
>  <shape_align_shape_tanimoto>  (3) 
0.80187941227644255

>  <shape_align_color_tanimoto>  (3) 
0.033633290462329261

>  <metric>  (3) 
combo

>  <metric_score>  (3) 
0.418

>  <template_pid>  (3) 
2GM9

>  <template_shape_score>  (3) 
0.802

>  <template_color_score>  (3) 
0.034

>  <template_combo_score>  (3) 
0.418

$$$$
