6O5U_shape_pose
     RDKit          3D

 33 35  0  0  0  0  0  0  0  0999 V2000
  -24.7465   90.2024   19.3590 N   0  0  0  0  0  0  0  0  0  0  0  0
  -25.0783   91.4652   18.7257 C   0  0  0  0  0  0  0  0  0  0  0  0
  -26.5307   91.8364   18.9518 C   0  0  1  0  0  0  0  0  0  0  0  0
  -27.3009   90.8492   18.4173 O   0  0  0  0  0  0  0  0  0  0  0  0
  -28.5331   90.6445   18.9763 C   0  0  2  0  0  0  0  0  0  0  0  0
  -29.2808   91.8012   18.7626 O   0  0  0  0  0  0  0  0  0  0  0  0
  -30.4676   91.5275   18.0471 C   0  0  1  0  0  0  0  0  0  0  0  0
  -31.6606   91.8624   18.8565 C   0  0  2  0  0  0  0  0  0  0  0  0
  -31.9597   90.7613   19.6893 O   0  0  0  0  0  0  0  0  0  0  0  0
  -32.9051   92.1786   18.1084 C   0  0  1  0  0  0  0  0  0  0  0  0
  -33.8935   92.7529   18.8755 O   0  0  0  0  0  0  0  0  0  0  0  0
  -35.0721   92.0759   18.9830 C   0  0  1  0  0  0  0  0  0  0  0  0
  -35.4255   91.8135   20.3191 O   0  0  0  0  0  0  0  0  0  0  0  0
  -35.9278   92.9050   20.9828 C   0  0  2  0  0  0  0  0  0  0  0  0
  -35.8542   92.5775   22.4780 C   0  0  0  0  0  0  0  0  0  0  0  0
  -36.3386   93.6165   23.2584 O   0  0  0  0  0  0  0  0  0  0  0  0
  -37.4001   93.0134   20.6291 C   0  0  1  0  0  0  0  0  0  0  0  0
  -37.7668   94.3239   20.8573 O   0  0  0  0  0  0  0  0  0  0  0  0
  -37.5014   92.6426   19.1553 C   0  0  2  0  0  0  0  0  0  0  0  0
  -37.7688   91.2397   19.0128 N   0  0  0  0  0  0  0  0  0  0  0  0
  -36.1864   92.9460   18.4447 C   0  0  1  0  0  0  0  0  0  0  0  0
  -35.8491   94.2951   18.5923 O   0  0  0  0  0  0  0  0  0  0  0  0
  -32.6678   93.0604   16.9069 C   0  0  2  0  0  0  0  0  0  0  0  0
  -33.9060   93.0231   16.1124 N   0  0  0  0  0  0  0  0  0  0  0  0
  -31.5935   92.5248   16.0307 C   0  0  0  0  0  0  0  0  0  0  0  0
  -30.3301   92.1713   16.7218 C   0  0  2  0  0  0  0  0  0  0  0  0
  -29.4577   91.3381   15.8966 N   0  0  0  0  0  0  0  0  0  0  0  0
  -28.3274   90.4186   20.4664 C   0  0  2  0  0  0  0  0  0  0  0  0
  -29.3761   89.8112   21.0972 O   0  0  0  0  0  0  0  0  0  0  0  0
  -28.0389   91.8280   20.9834 C   0  0  1  0  0  0  0  0  0  0  0  0
  -27.9767   91.8527   22.3644 O   0  0  0  0  0  0  0  0  0  0  0  0
  -26.7617   92.2473   20.3379 C   0  0  2  0  0  0  0  0  0  0  0  0
  -26.7017   93.6535   20.4894 O   0  0  0  0  0  0  0  0  0  0  0  0
  1  2  1  0
  3  2  1  1
  3  4  1  0
  4  5  1  0
  5  6  1  1
  7  6  1  1
  7  8  1  0
  8  9  1  1
  8 10  1  0
 10 11  1  1
 12 11  1  1
 12 13  1  0
 13 14  1  0
 14 15  1  1
 15 16  1  0
 14 17  1  0
 17 18  1  6
 17 19  1  0
 19 20  1  1
 19 21  1  0
 21 22  1  1
 10 23  1  0
 23 24  1  6
 23 25  1  0
 25 26  1  0
 26 27  1  6
  5 28  1  0
 28 29  1  1
 28 30  1  0
 30 31  1  1
 30 32  1  0
 32 33  1  6
 32  3  1  0
 26  7  1  0
 21 12  1  0
M  CHG  4   1   1  20   1  24   1  27   1
M  END
>  <shape_align_shape_tanimoto>  (1) 
0.62960470459294471

>  <shape_align_color_tanimoto>  (1) 
0.041777487876866734

>  <metric>  (1) 
shape

>  <metric_score>  (1) 
0.630

>  <template_pid>  (1) 
6O5U

>  <template_shape_score>  (1) 
0.630

>  <template_color_score>  (1) 
0.042

>  <template_combo_score>  (1) 
0.336

$$$$
6O5U_color_pose
     RDKit          3D

 33 35  0  0  0  0  0  0  0  0999 V2000
  -27.3683   94.3725   21.9506 N   0  0  0  0  0  0  0  0  0  0  0  0
  -27.1522   93.1019   21.2937 C   0  0  0  0  0  0  0  0  0  0  0  0
  -28.4582   92.5509   20.7348 C   0  0  1  0  0  0  0  0  0  0  0  0
  -28.1221   91.3438   20.1363 O   0  0  0  0  0  0  0  0  0  0  0  0
  -29.2425   90.6918   19.6114 C   0  0  2  0  0  0  0  0  0  0  0  0
  -29.8070   91.5294   18.6919 O   0  0  0  0  0  0  0  0  0  0  0  0
  -29.7870   91.1186   17.3872 C   0  0  1  0  0  0  0  0  0  0  0  0
  -31.2500   90.8696   17.0279 C   0  0  2  0  0  0  0  0  0  0  0  0
  -31.3813   90.4437   15.7086 O   0  0  0  0  0  0  0  0  0  0  0  0
  -32.0922   92.1234   17.1826 C   0  0  1  0  0  0  0  0  0  0  0  0
  -32.6220   92.2640   18.4638 O   0  0  0  0  0  0  0  0  0  0  0  0
  -34.0115   92.2432   18.4486 C   0  0  1  0  0  0  0  0  0  0  0  0
  -34.5241   91.1855   19.1945 O   0  0  0  0  0  0  0  0  0  0  0  0
  -34.7132   91.5148   20.5353 C   0  0  2  0  0  0  0  0  0  0  0  0
  -34.9811   90.2241   21.2845 C   0  0  0  0  0  0  0  0  0  0  0  0
  -35.1870   90.4304   22.6445 O   0  0  0  0  0  0  0  0  0  0  0  0
  -35.9802   92.3491   20.6340 C   0  0  1  0  0  0  0  0  0  0  0  0
  -36.0643   93.0229   21.8470 O   0  0  0  0  0  0  0  0  0  0  0  0
  -36.0088   93.2871   19.4525 C   0  0  2  0  0  0  0  0  0  0  0  0
  -36.8196   92.6860   18.4092 N   0  0  0  0  0  0  0  0  0  0  0  0
  -34.6021   93.5499   18.9372 C   0  0  1  0  0  0  0  0  0  0  0  0
  -33.8585   94.1732   19.9100 O   0  0  0  0  0  0  0  0  0  0  0  0
  -31.3537   93.3570   16.7458 C   0  0  2  0  0  0  0  0  0  0  0  0
  -32.2355   94.2999   16.0626 N   0  0  0  0  0  0  0  0  0  0  0  0
  -30.2794   92.9916   15.7755 C   0  0  0  0  0  0  0  0  0  0  0  0
  -29.2380   92.0672   16.3979 C   0  0  2  0  0  0  0  0  0  0  0  0
  -28.6735   91.3220   15.2858 N   0  0  0  0  0  0  0  0  0  0  0  0
  -30.1072   90.3074   20.7700 C   0  0  2  0  0  0  0  0  0  0  0  0
  -31.1455   89.4645   20.4357 O   0  0  0  0  0  0  0  0  0  0  0  0
  -30.5772   91.4947   21.5576 C   0  0  1  0  0  0  0  0  0  0  0  0
  -31.0221   91.0113   22.7969 O   0  0  0  0  0  0  0  0  0  0  0  0
  -29.4167   92.4051   21.8682 C   0  0  2  0  0  0  0  0  0  0  0  0
  -29.9403   93.6852   22.1457 O   0  0  0  0  0  0  0  0  0  0  0  0
  1  2  1  0
  3  2  1  1
  3  4  1  0
  4  5  1  0
  5  6  1  6
  7  6  1  1
  7  8  1  0
  8  9  1  6
  8 10  1  0
 10 11  1  1
 12 11  1  1
 12 13  1  0
 13 14  1  0
 14 15  1  1
 15 16  1  0
 14 17  1  0
 17 18  1  1
 17 19  1  0
 19 20  1  6
 19 21  1  0
 21 22  1  1
 10 23  1  0
 23 24  1  6
 23 25  1  0
 25 26  1  0
 26 27  1  6
  5 28  1  0
 28 29  1  6
 28 30  1  0
 30 31  1  1
 30 32  1  0
 32 33  1  6
 32  3  1  0
 26  7  1  0
 21 12  1  0
M  CHG  4   1   1  20   1  24   1  27   1
M  END
>  <shape_align_shape_tanimoto>  (2) 
0.57773764484431511

>  <shape_align_color_tanimoto>  (2) 
0.084823417611239932

>  <metric>  (2) 
color

>  <metric_score>  (2) 
0.085

>  <template_pid>  (2) 
6O5U

>  <template_shape_score>  (2) 
0.578

>  <template_color_score>  (2) 
0.085

>  <template_combo_score>  (2) 
0.331

$$$$
6O5U_combo_pose
     RDKit          3D

 33 35  0  0  0  0  0  0  0  0999 V2000
  -38.5993   94.3439   18.4815 N   0  0  0  0  0  0  0  0  0  0  0  0
  -38.2814   92.9327   18.5301 C   0  0  0  0  0  0  0  0  0  0  0  0
  -36.9791   92.5839   19.1644 C   0  0  1  0  0  0  0  0  0  0  0  0
  -35.9307   93.1584   18.4368 O   0  0  0  0  0  0  0  0  0  0  0  0
  -34.7200   92.8534   18.8941 C   0  0  2  0  0  0  0  0  0  0  0  0
  -33.8763   92.2613   17.9295 O   0  0  0  0  0  0  0  0  0  0  0  0
  -32.5309   92.6279   18.0176 C   0  0  1  0  0  0  0  0  0  0  0  0
  -31.7122   91.4123   18.2067 C   0  0  2  0  0  0  0  0  0  0  0  0
  -31.6150   90.9108   19.4972 O   0  0  0  0  0  0  0  0  0  0  0  0
  -30.2586   91.7363   17.8310 C   0  0  1  0  0  0  0  0  0  0  0  0
  -29.4546   90.9466   18.5797 O   0  0  0  0  0  0  0  0  0  0  0  0
  -28.3941   91.6119   19.2433 C   0  0  1  0  0  0  0  0  0  0  0  0
  -28.9434   92.0836   20.4770 O   0  0  0  0  0  0  0  0  0  0  0  0
  -28.7078   91.4228   21.5943 C   0  0  2  0  0  0  0  0  0  0  0  0
  -27.7893   92.3148   22.4756 C   0  0  0  0  0  0  0  0  0  0  0  0
  -28.4480   93.5111   22.7544 O   0  0  0  0  0  0  0  0  0  0  0  0
  -28.2649   90.0098   21.6548 C   0  0  1  0  0  0  0  0  0  0  0  0
  -29.3496   89.1716   22.0003 O   0  0  0  0  0  0  0  0  0  0  0  0
  -27.7847   89.5193   20.3228 C   0  0  2  0  0  0  0  0  0  0  0  0
  -26.7869   88.5349   20.5505 N   0  0  0  0  0  0  0  0  0  0  0  0
  -27.2903   90.6936   19.5056 C   0  0  1  0  0  0  0  0  0  0  0  0
  -26.6572   90.2349   18.3786 O   0  0  0  0  0  0  0  0  0  0  0  0
  -30.3032   91.5742   16.3357 C   0  0  2  0  0  0  0  0  0  0  0  0
  -28.9662   91.7165   15.8133 N   0  0  0  0  0  0  0  0  0  0  0  0
  -31.1171   92.7696   15.8763 C   0  0  0  0  0  0  0  0  0  0  0  0
  -32.1281   93.3284   16.7740 C   0  0  2  0  0  0  0  0  0  0  0  0
  -31.6856   94.7234   17.1028 N   0  0  0  0  0  0  0  0  0  0  0  0
  -34.7408   91.9685   20.1315 C   0  0  2  0  0  0  0  0  0  0  0  0
  -35.0199   90.6340   19.8958 O   0  0  0  0  0  0  0  0  0  0  0  0
  -35.6569   92.5037   21.1861 C   0  0  1  0  0  0  0  0  0  0  0  0
  -35.0147   93.4797   21.9752 O   0  0  0  0  0  0  0  0  0  0  0  0
  -36.8877   93.1533   20.5810 C   0  0  2  0  0  0  0  0  0  0  0  0
  -38.0387   92.8595   21.2687 O   0  0  0  0  0  0  0  0  0  0  0  0
  1  2  1  0
  3  2  1  6
  3  4  1  0
  4  5  1  0
  5  6  1  6
  7  6  1  6
  7  8  1  0
  8  9  1  1
  8 10  1  0
 10 11  1  1
 12 11  1  1
 12 13  1  0
 13 14  1  0
 14 15  1  6
 15 16  1  0
 14 17  1  0
 17 18  1  6
 17 19  1  0
 19 20  1  1
 19 21  1  0
 21 22  1  6
 10 23  1  0
 23 24  1  6
 23 25  1  0
 25 26  1  0
 26 27  1  1
  5 28  1  0
 28 29  1  6
 28 30  1  0
 30 31  1  6
 30 32  1  0
 32 33  1  1
 32  3  1  0
 26  7  1  0
 21 12  1  0
M  CHG  4   1   1  20   1  24   1  27   1
M  END
>  <shape_align_shape_tanimoto>  (3) 
0.62165054738492143

>  <shape_align_color_tanimoto>  (3) 
0.062914939534031988

>  <metric>  (3) 
combo

>  <metric_score>  (3) 
0.342

>  <template_pid>  (3) 
6O5U

>  <template_shape_score>  (3) 
0.622

>  <template_color_score>  (3) 
0.063

>  <template_combo_score>  (3) 
0.342

$$$$
