3HIG_shape_pose
     RDKit          3D

 21 22  0  0  0  0  0  0  0  0999 V2000
   19.7116   10.0556   38.7801 N   0  0  0  0  0  0  0  0  0  0  0  0
   20.2689    9.7707   40.1108 C   0  0  0  0  0  0  0  0  0  0  0  0
   19.3824    9.1752   40.8326 N   0  0  0  0  0  0  0  0  0  0  0  0
   21.6601   10.0099   40.3446 C   0  0  0  0  0  0  0  0  0  0  0  0
   22.3892   10.5400   39.2756 C   0  0  0  0  0  0  0  0  0  0  0  0
   23.8598   10.5351   39.2877 C   0  0  0  0  0  0  0  0  0  0  0  0
   24.3175    9.9930   40.4004 C   0  0  0  0  0  0  0  0  0  0  0  0
   25.8171    9.5607   40.4389 N   0  0  0  0  0  0  0  0  0  0  0  0
   25.8788    8.4578   39.9633 N   0  0  0  0  0  0  0  0  0  0  0  0
   26.2200    7.2965   39.5002 N   0  0  0  0  0  0  0  0  0  0  0  0
   25.3371    6.2331   40.1995 C   0  0  0  0  0  0  0  0  0  0  0  0
   24.0299    6.5772   40.2009 C   0  0  0  0  0  0  0  0  0  0  0  0
   23.2034    5.8928   41.1149 C   0  0  0  0  0  0  0  0  0  0  0  0
   23.7375    4.9493   41.8887 C   0  0  0  0  0  0  0  0  0  0  0  0
   22.8494    4.4158   42.9480 C   0  0  0  0  0  0  0  0  0  0  0  0
   21.4460    4.3285   42.9445 N   0  0  0  0  0  0  0  0  0  0  0  0
   23.5967    4.0549   44.0259 N   0  0  0  0  0  0  0  0  0  0  0  0
   25.1063    4.5960   41.8484 C   0  0  0  0  0  0  0  0  0  0  0  0
   25.9542    5.2861   40.9511 C   0  0  0  0  0  0  0  0  0  0  0  0
   23.6135    9.4816   41.4825 C   0  0  0  0  0  0  0  0  0  0  0  0
   22.2678    9.4853   41.4561 C   0  0  0  0  0  0  0  0  0  0  0  0
  1  2  1  0
  2  3  2  0
  2  4  1  0
  4  5  2  0
  5  6  1  0
  6  7  2  0
  7  8  1  0
  8  9  2  0
  9 10  1  0
 10 11  1  0
 11 12  2  0
 12 13  1  0
 13 14  2  0
 14 15  1  0
 15 16  1  0
 15 17  2  0
 14 18  1  0
 18 19  2  0
  7 20  1  0
 20 21  2  0
 21  4  1  0
 19 11  1  0
M  CHG  2   3   1  17   1
M  END
>  <shape_align_shape_tanimoto>  (1) 
0.61538984628682603

>  <shape_align_color_tanimoto>  (1) 
0.075177254833282345

>  <metric>  (1) 
shape

>  <metric_score>  (1) 
0.615

>  <template_pid>  (1) 
3HIG

>  <template_shape_score>  (1) 
0.615

>  <template_color_score>  (1) 
0.075

>  <template_combo_score>  (1) 
0.345

$$$$
3HIG_color_pose
     RDKit          3D

 21 22  0  0  0  0  0  0  0  0999 V2000
   26.7607    5.0425   40.0066 N   0  0  0  0  0  0  0  0  0  0  0  0
   25.7143    5.0868   40.9722 C   0  0  0  0  0  0  0  0  0  0  0  0
   25.6090    4.2180   41.9255 N   0  0  0  0  0  0  0  0  0  0  0  0
   24.7414    6.1697   40.8486 C   0  0  0  0  0  0  0  0  0  0  0  0
   25.1213    7.3985   40.3042 C   0  0  0  0  0  0  0  0  0  0  0  0
   24.2113    8.4288   40.1825 C   0  0  0  0  0  0  0  0  0  0  0  0
   22.9178    8.2106   40.6131 C   0  0  0  0  0  0  0  0  0  0  0  0
   21.9770    9.2970   40.4797 N   0  0  0  0  0  0  0  0  0  0  0  0
   22.2771   10.3993   39.9832 N   0  0  0  0  0  0  0  0  0  0  0  0
   21.4256   11.4975   39.8196 N   0  0  0  0  0  0  0  0  0  0  0  0
   22.0435   12.7835   39.6909 C   0  0  0  0  0  0  0  0  0  0  0  0
   23.4208   12.8624   39.7350 C   0  0  0  0  0  0  0  0  0  0  0  0
   24.0993   14.0694   39.6180 C   0  0  0  0  0  0  0  0  0  0  0  0
   23.3702   15.2304   39.4517 C   0  0  0  0  0  0  0  0  0  0  0  0
   24.0727   16.5158   39.3263 C   0  0  0  0  0  0  0  0  0  0  0  0
   25.3215   16.6492   39.9959 N   0  0  0  0  0  0  0  0  0  0  0  0
   23.5955   17.4882   38.6460 N   0  0  0  0  0  0  0  0  0  0  0  0
   21.9793   15.1567   39.4064 C   0  0  0  0  0  0  0  0  0  0  0  0
   21.3157   13.9416   39.5250 C   0  0  0  0  0  0  0  0  0  0  0  0
   22.4894    7.0253   41.1552 C   0  0  0  0  0  0  0  0  0  0  0  0
   23.4209    5.9878   41.2737 C   0  0  0  0  0  0  0  0  0  0  0  0
  1  2  1  0
  2  3  2  0
  2  4  1  0
  4  5  2  0
  5  6  1  0
  6  7  2  0
  7  8  1  0
  8  9  2  0
  9 10  1  0
 10 11  1  0
 11 12  2  0
 12 13  1  0
 13 14  2  0
 14 15  1  0
 15 16  1  0
 15 17  2  0
 14 18  1  0
 18 19  2  0
  7 20  1  0
 20 21  2  0
 21  4  1  0
 19 11  1  0
M  CHG  2   3   1  17   1
M  END
>  <shape_align_shape_tanimoto>  (2) 
0.45407416585809263

>  <shape_align_color_tanimoto>  (2) 
0.13987296579290273

>  <metric>  (2) 
color

>  <metric_score>  (2) 
0.140

>  <template_pid>  (2) 
3HIG

>  <template_shape_score>  (2) 
0.454

>  <template_color_score>  (2) 
0.140

>  <template_combo_score>  (2) 
0.297

$$$$
3HIG_combo_pose
     RDKit          3D

 21 22  0  0  0  0  0  0  0  0999 V2000
   19.7116   10.0556   38.7801 N   0  0  0  0  0  0  0  0  0  0  0  0
   20.2689    9.7707   40.1108 C   0  0  0  0  0  0  0  0  0  0  0  0
   19.3824    9.1752   40.8326 N   0  0  0  0  0  0  0  0  0  0  0  0
   21.6601   10.0099   40.3446 C   0  0  0  0  0  0  0  0  0  0  0  0
   22.3892   10.5400   39.2756 C   0  0  0  0  0  0  0  0  0  0  0  0
   23.8598   10.5351   39.2877 C   0  0  0  0  0  0  0  0  0  0  0  0
   24.3175    9.9930   40.4004 C   0  0  0  0  0  0  0  0  0  0  0  0
   25.8171    9.5607   40.4389 N   0  0  0  0  0  0  0  0  0  0  0  0
   25.8788    8.4578   39.9633 N   0  0  0  0  0  0  0  0  0  0  0  0
   26.2200    7.2965   39.5002 N   0  0  0  0  0  0  0  0  0  0  0  0
   25.3371    6.2331   40.1995 C   0  0  0  0  0  0  0  0  0  0  0  0
   24.0299    6.5772   40.2009 C   0  0  0  0  0  0  0  0  0  0  0  0
   23.2034    5.8928   41.1149 C   0  0  0  0  0  0  0  0  0  0  0  0
   23.7375    4.9493   41.8887 C   0  0  0  0  0  0  0  0  0  0  0  0
   22.8494    4.4158   42.9480 C   0  0  0  0  0  0  0  0  0  0  0  0
   21.4460    4.3285   42.9445 N   0  0  0  0  0  0  0  0  0  0  0  0
   23.5967    4.0549   44.0259 N   0  0  0  0  0  0  0  0  0  0  0  0
   25.1063    4.5960   41.8484 C   0  0  0  0  0  0  0  0  0  0  0  0
   25.9542    5.2861   40.9511 C   0  0  0  0  0  0  0  0  0  0  0  0
   23.6135    9.4816   41.4825 C   0  0  0  0  0  0  0  0  0  0  0  0
   22.2678    9.4853   41.4561 C   0  0  0  0  0  0  0  0  0  0  0  0
  1  2  1  0
  2  3  2  0
  2  4  1  0
  4  5  2  0
  5  6  1  0
  6  7  2  0
  7  8  1  0
  8  9  2  0
  9 10  1  0
 10 11  1  0
 11 12  2  0
 12 13  1  0
 13 14  2  0
 14 15  1  0
 15 16  1  0
 15 17  2  0
 14 18  1  0
 18 19  2  0
  7 20  1  0
 20 21  2  0
 21  4  1  0
 19 11  1  0
M  CHG  2   3   1  17   1
M  END
>  <shape_align_shape_tanimoto>  (3) 
0.61538984628682603

>  <shape_align_color_tanimoto>  (3) 
0.075177254833282345

>  <metric>  (3) 
combo

>  <metric_score>  (3) 
0.345

>  <template_pid>  (3) 
3HIG

>  <template_shape_score>  (3) 
0.615

>  <template_color_score>  (3) 
0.075

>  <template_combo_score>  (3) 
0.345

$$$$
