6HOR_shape_pose
     RDKit          3D

 14 14  0  0  0  0  0  0  0  0999 V2000
 -137.9375 -174.0170  363.9443 C   0  0  0  0  0  0  0  0  0  0  0  0
 -137.6981 -172.6908  363.5135 O   0  0  0  0  0  0  0  0  0  0  0  0
 -138.7379 -172.0248  362.8794 C   0  0  0  0  0  0  0  0  0  0  0  0
 -139.9467 -172.6579  362.6907 C   0  0  0  0  0  0  0  0  0  0  0  0
 -141.0242 -172.0316  362.0585 C   0  0  0  0  0  0  0  0  0  0  0  0
 -142.2917 -172.7286  361.8736 C   0  0  0  0  0  0  0  0  0  0  0  0
 -143.3463 -172.2109  361.2920 C   0  0  0  0  0  0  0  0  0  0  0  0
 -144.5634 -173.0031  361.1624 C   0  0  0  0  0  0  0  0  0  0  0  0
 -145.7873 -172.4665  360.5125 C   0  0  0  0  0  0  0  0  0  0  0  0
 -144.6035 -174.1738  361.6042 O   0  0  0  0  0  0  0  0  0  0  0  0
 -140.7985 -170.7400  361.6364 C   0  0  0  0  0  0  0  0  0  0  0  0
 -139.5853 -170.0893  361.8198 C   0  0  0  0  0  0  0  0  0  0  0  0
 -138.5399 -170.7328  362.4472 C   0  0  0  0  0  0  0  0  0  0  0  0
 -137.3023 -170.1490  362.6654 O   0  0  0  0  0  0  0  0  0  0  0  0
  1  2  1  0
  2  3  1  0
  3  4  2  0
  4  5  1  0
  5  6  1  0
  6  7  2  0
  7  8  1  0
  8  9  1  0
  8 10  2  0
  5 11  2  0
 11 12  1  0
 12 13  2  0
 13 14  1  0
 13  3  1  0
M  END
>  <shape_align_shape_tanimoto>  (1) 
0.34688928767608229

>  <shape_align_color_tanimoto>  (1) 
0.0086812742982096697

>  <metric>  (1) 
shape

>  <metric_score>  (1) 
0.347

>  <template_pid>  (1) 
6HOR

>  <template_shape_score>  (1) 
0.347

>  <template_color_score>  (1) 
0.009

>  <template_combo_score>  (1) 
0.178

$$$$
6HOR_color_pose
     RDKit          3D

 14 14  0  0  0  0  0  0  0  0999 V2000
 -138.9048 -168.7540  361.4644 C   0  0  0  0  0  0  0  0  0  0  0  0
 -138.2606 -169.8205  362.1429 O   0  0  0  0  0  0  0  0  0  0  0  0
 -138.9042 -171.0135  362.4076 C   0  0  0  0  0  0  0  0  0  0  0  0
 -140.2031 -171.2886  362.0516 C   0  0  0  0  0  0  0  0  0  0  0  0
 -140.8058 -172.4964  362.3372 C   0  0  0  0  0  0  0  0  0  0  0  0
 -142.1758 -172.8099  361.9716 C   0  0  0  0  0  0  0  0  0  0  0  0
 -142.9856 -171.9928  361.3373 C   0  0  0  0  0  0  0  0  0  0  0  0
 -144.3635 -172.3415  360.9835 C   0  0  0  0  0  0  0  0  0  0  0  0
 -144.9789 -173.6459  361.3054 C   0  0  0  0  0  0  0  0  0  0  0  0
 -145.1154 -171.5095  360.3633 O   0  0  0  0  0  0  0  0  0  0  0  0
 -140.0312 -173.4264  363.0059 C   0  0  0  0  0  0  0  0  0  0  0  0
 -138.7259 -173.1921  363.3812 C   0  0  0  0  0  0  0  0  0  0  0  0
 -138.1503 -171.9784  363.0834 C   0  0  0  0  0  0  0  0  0  0  0  0
 -136.8306 -171.7264  363.4565 O   0  0  0  0  0  0  0  0  0  0  0  0
  1  2  1  0
  2  3  1  0
  3  4  2  0
  4  5  1  0
  5  6  1  0
  6  7  2  0
  7  8  1  0
  8  9  1  0
  8 10  2  0
  5 11  2  0
 11 12  1  0
 12 13  2  0
 13 14  1  0
 13  3  1  0
M  END
>  <shape_align_shape_tanimoto>  (2) 
0.32095280172152502

>  <shape_align_color_tanimoto>  (2) 
0.084447344075477257

>  <metric>  (2) 
color

>  <metric_score>  (2) 
0.084

>  <template_pid>  (2) 
6HOR

>  <template_shape_score>  (2) 
0.321

>  <template_color_score>  (2) 
0.084

>  <template_combo_score>  (2) 
0.203

$$$$
6HOR_combo_pose
     RDKit          3D

 14 14  0  0  0  0  0  0  0  0999 V2000
 -138.0176 -168.6253  362.7036 C   0  0  0  0  0  0  0  0  0  0  0  0
 -137.6420 -169.9679  362.9507 O   0  0  0  0  0  0  0  0  0  0  0  0
 -138.4896 -171.0514  362.7785 C   0  0  0  0  0  0  0  0  0  0  0  0
 -139.7871 -170.8879  362.3437 C   0  0  0  0  0  0  0  0  0  0  0  0
 -140.6416 -171.9802  362.1701 C   0  0  0  0  0  0  0  0  0  0  0  0
 -142.0110 -171.7943  361.7098 C   0  0  0  0  0  0  0  0  0  0  0  0
 -142.8721 -172.7626  361.5225 C   0  0  0  0  0  0  0  0  0  0  0  0
 -144.2313 -172.4510  361.0537 C   0  0  0  0  0  0  0  0  0  0  0  0
 -145.2226 -173.5370  360.8353 C   0  0  0  0  0  0  0  0  0  0  0  0
 -144.5516 -171.2555  360.8378 O   0  0  0  0  0  0  0  0  0  0  0  0
 -140.0973 -173.2127  362.4619 C   0  0  0  0  0  0  0  0  0  0  0  0
 -138.7983 -173.3846  362.8981 C   0  0  0  0  0  0  0  0  0  0  0  0
 -137.9745 -172.2981  363.0623 C   0  0  0  0  0  0  0  0  0  0  0  0
 -136.6699 -172.4747  363.5006 O   0  0  0  0  0  0  0  0  0  0  0  0
  1  2  1  0
  2  3  1  0
  3  4  2  0
  4  5  1  0
  5  6  1  0
  6  7  2  0
  7  8  1  0
  8  9  1  0
  8 10  2  0
  5 11  2  0
 11 12  1  0
 12 13  2  0
 13 14  1  0
 13  3  1  0
M  END
>  <shape_align_shape_tanimoto>  (3) 
0.33456347009670895

>  <shape_align_color_tanimoto>  (3) 
0.080318640638729621

>  <metric>  (3) 
combo

>  <metric_score>  (3) 
0.207

>  <template_pid>  (3) 
6HOR

>  <template_shape_score>  (3) 
0.335

>  <template_color_score>  (3) 
0.080

>  <template_combo_score>  (3) 
0.207

$$$$
