5TWH_shape_pose
     RDKit          3D

 41 40  0  0  0  0  0  0  0  0999 V2000
    0.4084   40.6821  -17.8399 C   0  0  0  0  0  0  0  0  0  0  0  0
   -0.7778   41.2872  -17.0983 C   0  0  0  0  0  0  0  0  0  0  0  0
   -0.3497   41.5897  -15.6713 C   0  0  2  0  0  0  0  0  0  0  0  0
   -1.5443   42.1852  -14.8861 C   0  0  0  0  0  0  0  0  0  0  0  0
    0.8616   42.4728  -15.5667 C   0  0  2  0  0  0  0  0  0  0  0  0
    1.1571   42.6103  -14.0959 N   0  0  0  0  0  0  0  0  0  0  0  0
    2.3414   42.0267  -13.5613 C   0  0  0  0  0  0  0  0  0  0  0  0
    3.1237   41.3973  -14.3394 O   0  0  0  0  0  0  0  0  0  0  0  0
    2.7448   42.1018  -12.1177 C   0  0  1  0  0  0  0  0  0  0  0  0
    1.6954   42.8479  -11.4150 N   0  0  0  0  0  0  0  0  0  0  0  0
    1.9463   44.2107  -11.1092 C   0  0  0  0  0  0  0  0  0  0  0  0
    3.0442   44.7822  -11.4357 O   0  0  0  0  0  0  0  0  0  0  0  0
    0.9081   45.0830  -10.3655 C   0  0  2  0  0  0  0  0  0  0  0  0
    1.6607   45.6780   -9.2257 C   0  0  0  0  0  0  0  0  0  0  0  0
    0.9169   46.6047   -8.3090 C   0  0  0  0  0  0  0  0  0  0  0  0
    0.3435   48.0932   -9.1434 S   0  0  0  0  0  0  0  0  0  0  0  0
   -0.9929   47.8509  -10.3289 C   0  0  0  0  0  0  0  0  0  0  0  0
   -0.2143   44.2415   -9.9981 N   0  0  0  0  0  0  0  0  0  0  0  0
   -1.4512   44.1214  -10.6928 C   0  0  0  0  0  0  0  0  0  0  0  0
   -1.6942   44.7759  -11.7811 O   0  0  0  0  0  0  0  0  0  0  0  0
   -2.5412   43.2377  -10.2047 C   0  0  1  0  0  0  0  0  0  0  0  0
   -3.7465   43.3289  -11.0546 N   0  0  0  0  0  0  0  0  0  0  0  0
   -2.1963   41.7841  -10.0324 C   0  0  1  0  0  0  0  0  0  0  0  0
   -2.1190   41.0726  -11.3681 C   0  0  0  0  0  0  0  0  0  0  0  0
   -1.0547   41.5293   -9.2633 O   0  0  0  0  0  0  0  0  0  0  0  0
   -1.5775   40.6567   -7.8728 P   0  0  0  0  0  0  0  0  0  0  0  0
   -0.7779   41.0990   -6.6464 O   0  0  0  0  0  0  0  0  0  0  0  0
   -3.2458   40.9542   -7.5654 O   0  0  0  0  0  0  0  0  0  0  0  0
   -1.3879   38.9874   -8.0458 O   0  0  0  0  0  0  0  0  0  0  0  0
    3.0784   40.7701  -11.5081 C   0  0  0  0  0  0  0  0  0  0  0  0
    4.2444   40.1695  -12.2910 C   0  0  0  0  0  0  0  0  0  0  0  0
    3.4644   40.8594  -10.0533 C   0  0  0  0  0  0  0  0  0  0  0  0
    0.7478   43.8374  -16.1358 C   0  0  0  0  0  0  0  0  0  0  0  0
    0.8283   44.8069  -15.2699 O   0  0  0  0  0  0  0  0  0  0  0  0
    0.5673   44.2188  -17.4776 N   0  0  0  0  0  0  0  0  0  0  0  0
    0.4704   45.6356  -17.8669 C   0  0  2  0  0  0  0  0  0  0  0  0
   -0.8845   45.9651  -18.4592 C   0  0  0  0  0  0  0  0  0  0  0  0
    1.5875   46.0849  -18.7762 C   0  0  0  0  0  0  0  0  0  0  0  0
    1.6712   45.3487  -20.0591 C   0  0  0  0  0  0  0  0  0  0  0  0
    0.7834   44.3032  -20.4671 N   0  0  0  0  0  0  0  0  0  0  0  0
    2.6074   45.6653  -20.8735 O   0  0  0  0  0  0  0  0  0  0  0  0
  1  2  1  0
  2  3  1  0
  3  4  1  1
  3  5  1  0
  5  6  1  1
  6  7  1  0
  7  8  2  0
  7  9  1  0
  9 10  1  1
 10 11  1  0
 11 12  2  0
 11 13  1  0
 13 14  1  1
 14 15  1  0
 15 16  1  0
 16 17  1  0
 13 18  1  0
 18 19  1  0
 19 20  2  0
 19 21  1  0
 21 22  1  6
 21 23  1  0
 23 24  1  6
 23 25  1  0
 25 26  1  0
 26 27  2  0
 26 28  1  0
 26 29  1  0
  9 30  1  0
 30 31  1  0
 30 32  1  0
  5 33  1  0
 33 34  2  0
 33 35  1  0
 35 36  1  0
 36 37  1  6
 36 38  1  0
 38 39  1  0
 39 40  1  0
 39 41  2  0
M  CHG  1  22   1
M  END
>  <shape_align_shape_tanimoto>  (1) 
0.25965369634447594

>  <shape_align_color_tanimoto>  (1) 
0.0287269045751706

>  <metric>  (1) 
shape

>  <metric_score>  (1) 
0.260

>  <template_pid>  (1) 
5TWH

>  <template_shape_score>  (1) 
0.260

>  <template_color_score>  (1) 
0.029

>  <template_combo_score>  (1) 
0.144

$$$$
5TWH_color_pose
     RDKit          3D

 41 40  0  0  0  0  0  0  0  0999 V2000
    0.6795   40.1983  -17.7454 C   0  0  0  0  0  0  0  0  0  0  0  0
   -0.5105   40.9097  -17.1171 C   0  0  0  0  0  0  0  0  0  0  0  0
   -0.2559   41.2977  -15.6822 C   0  0  2  0  0  0  0  0  0  0  0  0
   -1.4648   42.0176  -15.0871 C   0  0  0  0  0  0  0  0  0  0  0  0
    1.0095   42.0675  -15.5256 C   0  0  2  0  0  0  0  0  0  0  0  0
    1.2288   42.4154  -14.1088 N   0  0  0  0  0  0  0  0  0  0  0  0
    2.4710   42.0451  -13.5503 C   0  0  0  0  0  0  0  0  0  0  0  0
    3.3445   41.4481  -14.2346 O   0  0  0  0  0  0  0  0  0  0  0  0
    2.8452   42.3275  -12.1257 C   0  0  1  0  0  0  0  0  0  0  0  0
    1.7873   42.9656  -11.3819 N   0  0  0  0  0  0  0  0  0  0  0  0
    1.7847   44.3373  -11.0169 C   0  0  0  0  0  0  0  0  0  0  0  0
    2.7930   45.0354  -11.3854 O   0  0  0  0  0  0  0  0  0  0  0  0
    0.7340   45.0131  -10.2617 C   0  0  2  0  0  0  0  0  0  0  0  0
    1.3190   45.7633   -9.1125 C   0  0  0  0  0  0  0  0  0  0  0  0
    2.0345   44.8707   -8.1591 C   0  0  0  0  0  0  0  0  0  0  0  0
    3.4160   43.9558   -8.8682 S   0  0  0  0  0  0  0  0  0  0  0  0
    4.1466   42.9346   -7.5563 C   0  0  0  0  0  0  0  0  0  0  0  0
   -0.3508   44.1395   -9.8668 N   0  0  0  0  0  0  0  0  0  0  0  0
   -1.6741   44.2390  -10.3580 C   0  0  0  0  0  0  0  0  0  0  0  0
   -1.8975   45.1681  -11.2063 O   0  0  0  0  0  0  0  0  0  0  0  0
   -2.7937   43.3800   -9.9809 C   0  0  1  0  0  0  0  0  0  0  0  0
   -4.0015   43.8195  -10.6935 N   0  0  0  0  0  0  0  0  0  0  0  0
   -2.5796   41.9118  -10.1089 C   0  0  1  0  0  0  0  0  0  0  0  0
   -2.6178   41.3863  -11.5204 C   0  0  0  0  0  0  0  0  0  0  0  0
   -1.4397   41.5274   -9.4271 O   0  0  0  0  0  0  0  0  0  0  0  0
   -1.8612   40.4701   -8.1533 P   0  0  0  0  0  0  0  0  0  0  0  0
   -2.6461   39.3212   -8.7332 O   0  0  0  0  0  0  0  0  0  0  0  0
   -0.4730   39.8689   -7.4063 O   0  0  0  0  0  0  0  0  0  0  0  0
   -2.7977   41.3258   -7.0192 O   0  0  0  0  0  0  0  0  0  0  0  0
    3.4494   41.1348  -11.4675 C   0  0  0  0  0  0  0  0  0  0  0  0
    2.4279   40.0006  -11.4967 C   0  0  0  0  0  0  0  0  0  0  0  0
    4.7287   40.7343  -12.1409 C   0  0  0  0  0  0  0  0  0  0  0  0
    0.8699   43.3744  -16.2484 C   0  0  0  0  0  0  0  0  0  0  0  0
    0.7024   43.4450  -17.4949 O   0  0  0  0  0  0  0  0  0  0  0  0
    0.9196   44.6223  -15.5578 N   0  0  0  0  0  0  0  0  0  0  0  0
    0.7828   45.8650  -16.2781 C   0  0  2  0  0  0  0  0  0  0  0  0
    2.0731   46.6567  -16.0230 C   0  0  0  0  0  0  0  0  0  0  0  0
   -0.3402   46.6874  -15.7322 C   0  0  0  0  0  0  0  0  0  0  0  0
   -0.1892   47.0582  -14.3168 C   0  0  0  0  0  0  0  0  0  0  0  0
   -1.2131   47.8394  -13.7196 N   0  0  0  0  0  0  0  0  0  0  0  0
    0.7820   46.7360  -13.5888 O   0  0  0  0  0  0  0  0  0  0  0  0
  1  2  1  0
  2  3  1  0
  3  4  1  6
  3  5  1  0
  5  6  1  1
  6  7  1  0
  7  8  2  0
  7  9  1  0
  9 10  1  1
 10 11  1  0
 11 12  2  0
 11 13  1  0
 13 14  1  1
 14 15  1  0
 15 16  1  0
 16 17  1  0
 13 18  1  0
 18 19  1  0
 19 20  2  0
 19 21  1  0
 21 22  1  6
 21 23  1  0
 23 24  1  6
 23 25  1  0
 25 26  1  0
 26 27  2  0
 26 28  1  0
 26 29  1  0
  9 30  1  0
 30 31  1  0
 30 32  1  0
  5 33  1  0
 33 34  2  0
 33 35  1  0
 35 36  1  0
 36 37  1  1
 36 38  1  0
 38 39  1  0
 39 40  1  0
 39 41  2  0
M  CHG  1  22   1
M  END
>  <shape_align_shape_tanimoto>  (2) 
0.24536460241234012

>  <shape_align_color_tanimoto>  (2) 
0.054243937746132745

>  <metric>  (2) 
color

>  <metric_score>  (2) 
0.054

>  <template_pid>  (2) 
5TWH

>  <template_shape_score>  (2) 
0.245

>  <template_color_score>  (2) 
0.054

>  <template_combo_score>  (2) 
0.150

$$$$
5TWH_combo_pose
     RDKit          3D

 41 40  0  0  0  0  0  0  0  0999 V2000
    0.6795   40.1983  -17.7454 C   0  0  0  0  0  0  0  0  0  0  0  0
   -0.5105   40.9097  -17.1171 C   0  0  0  0  0  0  0  0  0  0  0  0
   -0.2559   41.2977  -15.6822 C   0  0  2  0  0  0  0  0  0  0  0  0
   -1.4648   42.0176  -15.0871 C   0  0  0  0  0  0  0  0  0  0  0  0
    1.0095   42.0675  -15.5256 C   0  0  2  0  0  0  0  0  0  0  0  0
    1.2288   42.4154  -14.1088 N   0  0  0  0  0  0  0  0  0  0  0  0
    2.4710   42.0451  -13.5503 C   0  0  0  0  0  0  0  0  0  0  0  0
    3.3445   41.4481  -14.2346 O   0  0  0  0  0  0  0  0  0  0  0  0
    2.8452   42.3275  -12.1257 C   0  0  1  0  0  0  0  0  0  0  0  0
    1.7873   42.9656  -11.3819 N   0  0  0  0  0  0  0  0  0  0  0  0
    1.7847   44.3373  -11.0169 C   0  0  0  0  0  0  0  0  0  0  0  0
    2.7930   45.0354  -11.3854 O   0  0  0  0  0  0  0  0  0  0  0  0
    0.7340   45.0131  -10.2617 C   0  0  2  0  0  0  0  0  0  0  0  0
    1.3190   45.7633   -9.1125 C   0  0  0  0  0  0  0  0  0  0  0  0
    2.0345   44.8707   -8.1591 C   0  0  0  0  0  0  0  0  0  0  0  0
    3.4160   43.9558   -8.8682 S   0  0  0  0  0  0  0  0  0  0  0  0
    4.1466   42.9346   -7.5563 C   0  0  0  0  0  0  0  0  0  0  0  0
   -0.3508   44.1395   -9.8668 N   0  0  0  0  0  0  0  0  0  0  0  0
   -1.6741   44.2390  -10.3580 C   0  0  0  0  0  0  0  0  0  0  0  0
   -1.8975   45.1681  -11.2063 O   0  0  0  0  0  0  0  0  0  0  0  0
   -2.7937   43.3800   -9.9809 C   0  0  1  0  0  0  0  0  0  0  0  0
   -4.0015   43.8195  -10.6935 N   0  0  0  0  0  0  0  0  0  0  0  0
   -2.5796   41.9118  -10.1089 C   0  0  1  0  0  0  0  0  0  0  0  0
   -2.6178   41.3863  -11.5204 C   0  0  0  0  0  0  0  0  0  0  0  0
   -1.4397   41.5274   -9.4271 O   0  0  0  0  0  0  0  0  0  0  0  0
   -1.8612   40.4701   -8.1533 P   0  0  0  0  0  0  0  0  0  0  0  0
   -2.6461   39.3212   -8.7332 O   0  0  0  0  0  0  0  0  0  0  0  0
   -0.4730   39.8689   -7.4063 O   0  0  0  0  0  0  0  0  0  0  0  0
   -2.7977   41.3258   -7.0192 O   0  0  0  0  0  0  0  0  0  0  0  0
    3.4494   41.1348  -11.4675 C   0  0  0  0  0  0  0  0  0  0  0  0
    2.4279   40.0006  -11.4967 C   0  0  0  0  0  0  0  0  0  0  0  0
    4.7287   40.7343  -12.1409 C   0  0  0  0  0  0  0  0  0  0  0  0
    0.8699   43.3744  -16.2484 C   0  0  0  0  0  0  0  0  0  0  0  0
    0.7024   43.4450  -17.4949 O   0  0  0  0  0  0  0  0  0  0  0  0
    0.9196   44.6223  -15.5578 N   0  0  0  0  0  0  0  0  0  0  0  0
    0.7828   45.8650  -16.2781 C   0  0  2  0  0  0  0  0  0  0  0  0
    2.0731   46.6567  -16.0230 C   0  0  0  0  0  0  0  0  0  0  0  0
   -0.3402   46.6874  -15.7322 C   0  0  0  0  0  0  0  0  0  0  0  0
   -0.1892   47.0582  -14.3168 C   0  0  0  0  0  0  0  0  0  0  0  0
   -1.2131   47.8394  -13.7196 N   0  0  0  0  0  0  0  0  0  0  0  0
    0.7820   46.7360  -13.5888 O   0  0  0  0  0  0  0  0  0  0  0  0
  1  2  1  0
  2  3  1  0
  3  4  1  6
  3  5  1  0
  5  6  1  1
  6  7  1  0
  7  8  2  0
  7  9  1  0
  9 10  1  1
 10 11  1  0
 11 12  2  0
 11 13  1  0
 13 14  1  1
 14 15  1  0
 15 16  1  0
 16 17  1  0
 13 18  1  0
 18 19  1  0
 19 20  2  0
 19 21  1  0
 21 22  1  6
 21 23  1  0
 23 24  1  6
 23 25  1  0
 25 26  1  0
 26 27  2  0
 26 28  1  0
 26 29  1  0
  9 30  1  0
 30 31  1  0
 30 32  1  0
  5 33  1  0
 33 34  2  0
 33 35  1  0
 35 36  1  0
 36 37  1  1
 36 38  1  0
 38 39  1  0
 39 40  1  0
 39 41  2  0
M  CHG  1  22   1
M  END
>  <shape_align_shape_tanimoto>  (3) 
0.24536460241234012

>  <shape_align_color_tanimoto>  (3) 
0.054243937746132745

>  <metric>  (3) 
combo

>  <metric_score>  (3) 
0.150

>  <template_pid>  (3) 
5TWH

>  <template_shape_score>  (3) 
0.245

>  <template_color_score>  (3) 
0.054

>  <template_combo_score>  (3) 
0.150

$$$$
