3IAF_shape_pose
     RDKit          3D

 26 27  0  0  0  0  0  0  0  0999 V2000
   16.6842    1.6500    4.7772 C   0  0  0  0  0  0  0  0  0  0  0  0
   15.6221    0.6521    4.4582 C   0  0  0  0  0  0  0  0  0  0  0  0
   15.2028   -0.1879    5.4153 N   0  0  0  0  0  0  0  0  0  0  0  0
   14.2445   -1.1037    5.2083 C   0  0  0  0  0  0  0  0  0  0  0  0
   13.6455   -1.1995    3.9438 C   0  0  0  0  0  0  0  0  0  0  0  0
   12.5871   -2.2038    3.7431 C   0  0  0  0  0  0  0  0  0  0  0  0
   12.3106   -2.9042    5.0259 N   0  0  0  0  0  0  0  0  0  0  0  0
   13.0088   -4.0250    5.3145 C   0  0  0  0  0  0  0  0  0  0  0  0
   12.3940   -4.5594    6.9364 S   0  0  0  0  0  0  0  0  0  0  0  0
   11.2354   -3.1769    7.0474 C   0  0  0  0  0  0  0  0  0  0  0  0
   10.3206   -2.8603    8.1061 C   0  0  0  0  0  0  0  0  0  0  0  0
   10.6891   -3.5667    9.3916 C   0  0  0  0  0  0  0  0  0  0  0  0
   11.9707   -3.2398    9.8163 O   0  0  0  0  0  0  0  0  0  0  0  0
   12.0340   -2.2966   11.1969 P   0  0  2  0  0  5  0  0  0  0  0  0
   10.7501   -1.5401   11.4569 O   0  0  0  0  0  0  0  0  0  0  0  0
   13.2403   -1.1130   10.9054 O   0  0  0  0  0  0  0  0  0  0  0  0
   12.4527   -3.1155   12.5986 O   0  0  0  0  0  0  0  0  0  0  0  0
   14.0887   -2.8490   12.9175 P   0  0  0  0  0  0  0  0  0  0  0  0
   14.5706   -3.7733   14.0226 O   0  0  0  0  0  0  0  0  0  0  0  0
   15.0352   -3.1425   11.5439 O   0  0  0  0  0  0  0  0  0  0  0  0
   14.4005   -1.2623   13.3953 O   0  0  0  0  0  0  0  0  0  0  0  0
   11.4314   -2.4798    5.8788 C   0  0  0  0  0  0  0  0  0  0  0  0
   10.6036   -1.2207    5.6126 C   0  0  0  0  0  0  0  0  0  0  0  0
   14.0968   -0.3317    2.9995 C   0  0  0  0  0  0  0  0  0  0  0  0
   13.5325   -0.3842    1.7006 N   0  0  0  0  0  0  0  0  0  0  0  0
   15.0545    0.5775    3.2220 N   0  0  0  0  0  0  0  0  0  0  0  0
  1  2  1  0
  2  3  2  0
  3  4  1  0
  4  5  2  0
  5  6  1  0
  6  7  1  0
  7  8  2  0
  8  9  1  0
  9 10  1  0
 10 11  1  0
 11 12  1  0
 12 13  1  0
 13 14  1  0
 14 15  2  0
 14 16  1  6
 14 17  1  0
 17 18  1  0
 18 19  2  0
 18 20  1  0
 18 21  1  0
 10 22  2  0
 22 23  1  0
  5 24  1  0
 24 25  1  0
 24 26  2  0
 26  2  1  0
 22  7  1  0
M  CHG  1   7   1
M  END
>  <shape_align_shape_tanimoto>  (1) 
0.6980476404958168

>  <shape_align_color_tanimoto>  (1) 
0.036990340514577884

>  <metric>  (1) 
shape

>  <metric_score>  (1) 
0.698

>  <template_pid>  (1) 
3IAF

>  <template_shape_score>  (1) 
0.698

>  <template_color_score>  (1) 
0.037

>  <template_combo_score>  (1) 
0.368

$$$$
3IAF_color_pose
     RDKit          3D

 26 27  0  0  0  0  0  0  0  0999 V2000
    9.2200   -4.1620   12.7454 C   0  0  0  0  0  0  0  0  0  0  0  0
   10.1600   -3.5623   11.7387 C   0  0  0  0  0  0  0  0  0  0  0  0
    9.6230   -3.3766   10.4939 N   0  0  0  0  0  0  0  0  0  0  0  0
   10.3875   -2.8173    9.5047 C   0  0  0  0  0  0  0  0  0  0  0  0
   11.6934   -2.4405    9.7545 C   0  0  0  0  0  0  0  0  0  0  0  0
   12.5685   -1.8951    8.6832 C   0  0  0  0  0  0  0  0  0  0  0  0
   12.5336   -2.7744    7.4754 N   0  0  0  0  0  0  0  0  0  0  0  0
   13.2479   -3.9432    7.4408 C   0  0  0  0  0  0  0  0  0  0  0  0
   12.8540   -4.7631    5.8963 S   0  0  0  0  0  0  0  0  0  0  0  0
   11.6959   -3.3951    5.3807 C   0  0  0  0  0  0  0  0  0  0  0  0
   10.9536   -3.3526    4.1194 C   0  0  0  0  0  0  0  0  0  0  0  0
   11.6981   -2.4646    3.1324 C   0  0  0  0  0  0  0  0  0  0  0  0
   11.8939   -1.1615    3.5705 O   0  0  0  0  0  0  0  0  0  0  0  0
   13.5111   -0.6542    3.3360 P   0  0  2  0  0  5  0  0  0  0  0  0
   13.7731   -0.2078    1.9229 O   0  0  0  0  0  0  0  0  0  0  0  0
   14.5867   -1.9610    3.6692 O   0  0  0  0  0  0  0  0  0  0  0  0
   13.8746    0.5403    4.4890 O   0  0  0  0  0  0  0  0  0  0  0  0
   15.5222    0.4870    4.9434 P   0  0  0  0  0  0  0  0  0  0  0  0
   15.9472   -0.9097    5.3678 O   0  0  0  0  0  0  0  0  0  0  0  0
   15.7208    1.4990    6.3085 O   0  0  0  0  0  0  0  0  0  0  0  0
   16.5235    1.0115    3.6689 O   0  0  0  0  0  0  0  0  0  0  0  0
   11.7658   -2.5056    6.4468 C   0  0  0  0  0  0  0  0  0  0  0  0
   10.9454   -1.2070    6.3669 C   0  0  0  0  0  0  0  0  0  0  0  0
   12.2131   -2.6517   11.0558 C   0  0  0  0  0  0  0  0  0  0  0  0
   13.5836   -2.2393   11.3419 N   0  0  0  0  0  0  0  0  0  0  0  0
   11.4408   -3.2139   12.0433 N   0  0  0  0  0  0  0  0  0  0  0  0
  1  2  1  0
  2  3  2  0
  3  4  1  0
  4  5  2  0
  5  6  1  0
  6  7  1  0
  7  8  2  0
  8  9  1  0
  9 10  1  0
 10 11  1  0
 11 12  1  0
 12 13  1  0
 13 14  1  0
 14 15  2  0
 14 16  1  1
 14 17  1  0
 17 18  1  0
 18 19  2  0
 18 20  1  0
 18 21  1  0
 10 22  2  0
 22 23  1  0
  5 24  1  0
 24 25  1  0
 24 26  2  0
 26  2  1  0
 22  7  1  0
M  CHG  1   7   1
M  END
>  <shape_align_shape_tanimoto>  (2) 
0.57808430513075026

>  <shape_align_color_tanimoto>  (2) 
0.10522879003006683

>  <metric>  (2) 
color

>  <metric_score>  (2) 
0.105

>  <template_pid>  (2) 
3IAF

>  <template_shape_score>  (2) 
0.578

>  <template_color_score>  (2) 
0.105

>  <template_combo_score>  (2) 
0.342

$$$$
3IAF_combo_pose
     RDKit          3D

 26 27  0  0  0  0  0  0  0  0999 V2000
   16.3633    2.2883    4.9460 C   0  0  0  0  0  0  0  0  0  0  0  0
   15.5220    1.1030    4.6345 C   0  0  0  0  0  0  0  0  0  0  0  0
   14.1831    1.2278    4.6336 N   0  0  0  0  0  0  0  0  0  0  0  0
   13.3605    0.1900    4.3579 C   0  0  0  0  0  0  0  0  0  0  0  0
   13.8766   -1.0819    4.0564 C   0  0  0  0  0  0  0  0  0  0  0  0
   12.9380   -2.1405    3.7718 C   0  0  0  0  0  0  0  0  0  0  0  0
   12.7217   -3.1062    4.8695 N   0  0  0  0  0  0  0  0  0  0  0  0
   13.4927   -4.2322    4.8916 C   0  0  0  0  0  0  0  0  0  0  0  0
   12.9073   -5.1637    6.3719 S   0  0  0  0  0  0  0  0  0  0  0  0
   11.7082   -3.9263    6.7677 C   0  0  0  0  0  0  0  0  0  0  0  0
   10.7692   -3.9745    7.9283 C   0  0  0  0  0  0  0  0  0  0  0  0
   11.2433   -3.0585    9.0046 C   0  0  0  0  0  0  0  0  0  0  0  0
   10.4375   -3.0334   10.1224 O   0  0  0  0  0  0  0  0  0  0  0  0
   10.9100   -2.0791   11.3803 P   0  0  2  0  0  5  0  0  0  0  0  0
   11.4871   -3.0074   12.4547 O   0  0  0  0  0  0  0  0  0  0  0  0
    9.5998   -1.3079   12.1245 O   0  0  0  0  0  0  0  0  0  0  0  0
   12.0786   -0.9382   11.0432 O   0  0  0  0  0  0  0  0  0  0  0  0
   13.6468   -1.5505   11.1450 P   0  0  0  0  0  0  0  0  0  0  0  0
   13.7029   -2.8866   11.8051 O   0  0  0  0  0  0  0  0  0  0  0  0
   14.6246   -0.4476   11.9984 O   0  0  0  0  0  0  0  0  0  0  0  0
   14.2592   -1.5971    9.5555 O   0  0  0  0  0  0  0  0  0  0  0  0
   11.8402   -2.9532    5.7945 C   0  0  0  0  0  0  0  0  0  0  0  0
   10.9233   -1.7308    5.8663 C   0  0  0  0  0  0  0  0  0  0  0  0
   15.2510   -1.1714    4.0669 C   0  0  0  0  0  0  0  0  0  0  0  0
   15.8768   -2.4036    3.7720 N   0  0  0  0  0  0  0  0  0  0  0  0
   16.0512   -0.1109    4.3476 N   0  0  0  0  0  0  0  0  0  0  0  0
  1  2  1  0
  2  3  2  0
  3  4  1  0
  4  5  2  0
  5  6  1  0
  6  7  1  0
  7  8  2  0
  8  9  1  0
  9 10  1  0
 10 11  1  0
 11 12  1  0
 12 13  1  0
 13 14  1  0
 14 15  2  0
 14 16  1  1
 14 17  1  0
 17 18  1  0
 18 19  2  0
 18 20  1  0
 18 21  1  0
 10 22  2  0
 22 23  1  0
  5 24  1  0
 24 25  1  0
 24 26  2  0
 26  2  1  0
 22  7  1  0
M  CHG  1   7   1
M  END
>  <shape_align_shape_tanimoto>  (3) 
0.65696446169138922

>  <shape_align_color_tanimoto>  (3) 
0.096889220452160793

>  <metric>  (3) 
combo

>  <metric_score>  (3) 
0.377

>  <template_pid>  (3) 
3IAF

>  <template_shape_score>  (3) 
0.657

>  <template_color_score>  (3) 
0.097

>  <template_combo_score>  (3) 
0.377

$$$$
