4U3F_shape_pose
     RDKit          3D

 27 29  0  0  0  0  0  0  0  0999 V2000
   43.4750   40.2926   85.6849 C   0  0  0  0  0  0  0  0  0  0  0  0
   43.7994   39.3487   86.6465 O   0  0  0  0  0  0  0  0  0  0  0  0
   44.8178   38.4326   86.6074 C   0  0  0  0  0  0  0  0  0  0  0  0
   45.2047   37.7856   87.7286 C   0  0  0  0  0  0  0  0  0  0  0  0
   46.2863   36.8191   87.7052 C   0  0  0  0  0  0  0  0  0  0  0  0
   46.5974   36.2476   88.7673 O   0  0  0  0  0  0  0  0  0  0  0  0
   46.9213   36.5793   86.5094 O   0  0  0  0  0  0  0  0  0  0  0  0
   47.9945   35.6635   86.3714 C   0  0  0  0  0  0  0  0  0  0  0  0
   44.4423   38.1187   88.9188 C   0  0  0  0  0  0  0  0  0  0  0  0
   45.1575   38.9442   89.8168 C   0  0  0  0  0  0  0  0  0  0  0  0
   44.5603   39.4090   90.9595 C   0  0  0  0  0  0  0  0  0  0  0  0
   43.2615   39.0413   91.1850 C   0  0  0  0  0  0  0  0  0  0  0  0
   42.5779   38.2411   90.3184 C   0  0  0  0  0  0  0  0  0  0  0  0
   43.1644   37.7334   89.1186 C   0  0  0  0  0  0  0  0  0  0  0  0
   42.3487   36.7386   88.4357 C   0  0  0  0  0  0  0  0  0  0  0  0
   42.0856   36.7554   86.7004 S   0  0  0  0  0  0  0  0  0  0  0  0
   43.2955   35.5891   85.9510 C   0  0  0  0  0  0  0  0  0  0  0  0
   44.1518   34.7998   86.4396 N   0  0  0  0  0  0  0  0  0  0  0  0
   44.9036   34.0145   85.7023 C   0  0  0  0  0  0  0  0  0  0  0  0
   45.8672   33.0894   86.1433 C   0  0  0  0  0  0  0  0  0  0  0  0
   46.5471   32.3377   85.2357 C   0  0  0  0  0  0  0  0  0  0  0  0
   47.5079   31.4051   85.6668 O   0  0  0  0  0  0  0  0  0  0  0  0
   47.7216   31.2887   87.0532 C   0  0  0  0  0  0  0  0  0  0  0  0
   46.3714   32.4024   83.8617 C   0  0  0  0  0  0  0  0  0  0  0  0
   45.4142   33.3235   83.4345 C   0  0  0  0  0  0  0  0  0  0  0  0
   44.7276   34.0812   84.3531 C   0  0  0  0  0  0  0  0  0  0  0  0
   43.4407   35.3134   84.1735 S   0  0  0  0  0  0  0  0  0  0  0  0
  1  2  1  0
  2  3  1  0
  3  4  2  0
  4  5  1  0
  5  6  2  0
  5  7  1  0
  7  8  1  0
  4  9  1  0
  9 10  2  0
 10 11  1  0
 11 12  2  0
 12 13  1  0
 13 14  2  0
 14 15  1  0
 15 16  1  0
 16 17  1  0
 17 18  2  0
 18 19  1  0
 19 20  2  0
 20 21  1  0
 21 22  1  0
 22 23  1  0
 21 24  2  0
 24 25  1  0
 25 26  2  0
 26 27  1  0
 14  9  1  0
 27 17  1  0
 26 19  1  0
M  END
>  <shape_align_shape_tanimoto>  (1) 
0.66628799466241229

>  <shape_align_color_tanimoto>  (1) 
0.068316615359201152

>  <metric>  (1) 
shape

>  <metric_score>  (1) 
0.666

>  <template_pid>  (1) 
4U3F

>  <template_shape_score>  (1) 
0.666

>  <template_color_score>  (1) 
0.068

>  <template_combo_score>  (1) 
0.367

$$$$
4U3F_color_pose
     RDKit          3D

 27 29  0  0  0  0  0  0  0  0999 V2000
   43.1074   29.6430   84.9361 C   0  0  0  0  0  0  0  0  0  0  0  0
   44.0318   30.4628   84.2610 O   0  0  0  0  0  0  0  0  0  0  0  0
   43.6692   31.6585   83.7036 C   0  0  0  0  0  0  0  0  0  0  0  0
   44.3229   32.8406   83.9326 C   0  0  0  0  0  0  0  0  0  0  0  0
   43.7390   33.9529   83.2350 C   0  0  0  0  0  0  0  0  0  0  0  0
   42.6819   33.7009   82.5224 O   0  0  0  0  0  0  0  0  0  0  0  0
   44.0931   35.2636   83.1762 O   0  0  0  0  0  0  0  0  0  0  0  0
   43.3091   36.1414   82.3919 C   0  0  0  0  0  0  0  0  0  0  0  0
   45.4995   32.7350   84.7457 C   0  0  0  0  0  0  0  0  0  0  0  0
   46.1658   31.5199   84.8166 C   0  0  0  0  0  0  0  0  0  0  0  0
   47.2063   31.2411   85.6738 C   0  0  0  0  0  0  0  0  0  0  0  0
   47.6423   32.2008   86.5253 C   0  0  0  0  0  0  0  0  0  0  0  0
   47.0253   33.4194   86.4971 C   0  0  0  0  0  0  0  0  0  0  0  0
   45.9690   33.7158   85.6330 C   0  0  0  0  0  0  0  0  0  0  0  0
   45.3846   35.0838   85.6515 C   0  0  0  0  0  0  0  0  0  0  0  0
   43.7838   35.2138   86.4106 S   0  0  0  0  0  0  0  0  0  0  0  0
   43.8141   36.4723   87.7588 C   0  0  0  0  0  0  0  0  0  0  0  0
   44.4979   37.2490   88.2339 N   0  0  0  0  0  0  0  0  0  0  0  0
   44.3049   38.0841   89.2475 C   0  0  0  0  0  0  0  0  0  0  0  0
   45.1623   39.0417   89.7679 C   0  0  0  0  0  0  0  0  0  0  0  0
   44.6930   39.8213   90.8264 C   0  0  0  0  0  0  0  0  0  0  0  0
   45.5556   40.8005   91.3583 O   0  0  0  0  0  0  0  0  0  0  0  0
   46.8619   40.9837   90.7960 C   0  0  0  0  0  0  0  0  0  0  0  0
   43.4423   39.6920   91.3729 C   0  0  0  0  0  0  0  0  0  0  0  0
   42.5777   38.7289   90.8495 C   0  0  0  0  0  0  0  0  0  0  0  0
   43.0641   37.9772   89.8082 C   0  0  0  0  0  0  0  0  0  0  0  0
   42.2557   36.6600   88.8135 S   0  0  0  0  0  0  0  0  0  0  0  0
  1  2  1  0
  2  3  1  0
  3  4  2  0
  4  5  1  0
  5  6  2  0
  5  7  1  0
  7  8  1  0
  4  9  1  0
  9 10  2  0
 10 11  1  0
 11 12  2  0
 12 13  1  0
 13 14  2  0
 14 15  1  0
 15 16  1  0
 16 17  1  0
 17 18  2  0
 18 19  1  0
 19 20  2  0
 20 21  1  0
 21 22  1  0
 22 23  1  0
 21 24  2  0
 24 25  1  0
 25 26  2  0
 26 27  1  0
 14  9  1  0
 27 17  1  0
 26 19  1  0
M  END
>  <shape_align_shape_tanimoto>  (2) 
0.6128354767546943

>  <shape_align_color_tanimoto>  (2) 
0.18304127026376674

>  <metric>  (2) 
color

>  <metric_score>  (2) 
0.183

>  <template_pid>  (2) 
4U3F

>  <template_shape_score>  (2) 
0.613

>  <template_color_score>  (2) 
0.183

>  <template_combo_score>  (2) 
0.398

$$$$
4U3F_combo_pose
     RDKit          3D

 27 29  0  0  0  0  0  0  0  0999 V2000
   43.1074   29.6430   84.9361 C   0  0  0  0  0  0  0  0  0  0  0  0
   44.0318   30.4628   84.2610 O   0  0  0  0  0  0  0  0  0  0  0  0
   43.6692   31.6585   83.7036 C   0  0  0  0  0  0  0  0  0  0  0  0
   44.3229   32.8406   83.9326 C   0  0  0  0  0  0  0  0  0  0  0  0
   43.7390   33.9529   83.2350 C   0  0  0  0  0  0  0  0  0  0  0  0
   42.6819   33.7009   82.5224 O   0  0  0  0  0  0  0  0  0  0  0  0
   44.0931   35.2636   83.1762 O   0  0  0  0  0  0  0  0  0  0  0  0
   43.3091   36.1414   82.3919 C   0  0  0  0  0  0  0  0  0  0  0  0
   45.4995   32.7350   84.7457 C   0  0  0  0  0  0  0  0  0  0  0  0
   46.1658   31.5199   84.8166 C   0  0  0  0  0  0  0  0  0  0  0  0
   47.2063   31.2411   85.6738 C   0  0  0  0  0  0  0  0  0  0  0  0
   47.6423   32.2008   86.5253 C   0  0  0  0  0  0  0  0  0  0  0  0
   47.0253   33.4194   86.4971 C   0  0  0  0  0  0  0  0  0  0  0  0
   45.9690   33.7158   85.6330 C   0  0  0  0  0  0  0  0  0  0  0  0
   45.3846   35.0838   85.6515 C   0  0  0  0  0  0  0  0  0  0  0  0
   43.7838   35.2138   86.4106 S   0  0  0  0  0  0  0  0  0  0  0  0
   43.8141   36.4723   87.7588 C   0  0  0  0  0  0  0  0  0  0  0  0
   44.4979   37.2490   88.2339 N   0  0  0  0  0  0  0  0  0  0  0  0
   44.3049   38.0841   89.2475 C   0  0  0  0  0  0  0  0  0  0  0  0
   45.1623   39.0417   89.7679 C   0  0  0  0  0  0  0  0  0  0  0  0
   44.6930   39.8213   90.8264 C   0  0  0  0  0  0  0  0  0  0  0  0
   45.5556   40.8005   91.3583 O   0  0  0  0  0  0  0  0  0  0  0  0
   46.8619   40.9837   90.7960 C   0  0  0  0  0  0  0  0  0  0  0  0
   43.4423   39.6920   91.3729 C   0  0  0  0  0  0  0  0  0  0  0  0
   42.5777   38.7289   90.8495 C   0  0  0  0  0  0  0  0  0  0  0  0
   43.0641   37.9772   89.8082 C   0  0  0  0  0  0  0  0  0  0  0  0
   42.2557   36.6600   88.8135 S   0  0  0  0  0  0  0  0  0  0  0  0
  1  2  1  0
  2  3  1  0
  3  4  2  0
  4  5  1  0
  5  6  2  0
  5  7  1  0
  7  8  1  0
  4  9  1  0
  9 10  2  0
 10 11  1  0
 11 12  2  0
 12 13  1  0
 13 14  2  0
 14 15  1  0
 15 16  1  0
 16 17  1  0
 17 18  2  0
 18 19  1  0
 19 20  2  0
 20 21  1  0
 21 22  1  0
 22 23  1  0
 21 24  2  0
 24 25  1  0
 25 26  2  0
 26 27  1  0
 14  9  1  0
 27 17  1  0
 26 19  1  0
M  END
>  <shape_align_shape_tanimoto>  (3) 
0.6128354767546943

>  <shape_align_color_tanimoto>  (3) 
0.18304127026376674

>  <metric>  (3) 
combo

>  <metric_score>  (3) 
0.398

>  <template_pid>  (3) 
4U3F

>  <template_shape_score>  (3) 
0.613

>  <template_color_score>  (3) 
0.183

>  <template_combo_score>  (3) 
0.398

$$$$
