5C28_shape_pose
     RDKit          3D

 12 13  0  0  0  0  0  0  0  0999 V2000
   16.9223  -36.4260  -18.1780 C   0  0  0  0  0  0  0  0  0  0  0  0
   15.7722  -37.2766  -18.5934 C   0  0  0  0  0  0  0  0  0  0  0  0
   14.9042  -37.8415  -17.6731 C   0  0  0  0  0  0  0  0  0  0  0  0
   15.0997  -37.6145  -16.2848 N   0  0  0  0  0  0  0  0  0  0  0  0
   13.9025  -38.5883  -18.1300 N   0  0  0  0  0  0  0  0  0  0  0  0
   13.7058  -38.8124  -19.4594 C   0  0  0  0  0  0  0  0  0  0  0  0
   12.5733  -39.6504  -19.8741 C   0  0  0  0  0  0  0  0  0  0  0  0
   11.7670  -39.2951  -21.0751 C   0  0  0  0  0  0  0  0  0  0  0  0
   12.6279  -40.5508  -21.0491 C   0  0  0  0  0  0  0  0  0  0  0  0
   14.5427  -38.2695  -20.3748 N   0  0  0  0  0  0  0  0  0  0  0  0
   15.5670  -37.5079  -19.9393 C   0  0  0  0  0  0  0  0  0  0  0  0
   16.6298  -36.8221  -21.1596 Cl  0  0  0  0  0  0  0  0  0  0  0  0
  1  2  1  0
  2  3  2  0
  3  4  1  0
  3  5  1  0
  5  6  2  0
  6  7  1  0
  7  8  1  0
  8  9  1  0
  6 10  1  0
 10 11  2  0
 11 12  1  0
 11  2  1  0
  9  7  1  0
M  END
>  <shape_align_shape_tanimoto>  (1) 
0.56358045959564795

>  <shape_align_color_tanimoto>  (1) 
0.18466966754459896

>  <metric>  (1) 
shape

>  <metric_score>  (1) 
0.564

>  <template_pid>  (1) 
5C28

>  <template_shape_score>  (1) 
0.564

>  <template_color_score>  (1) 
0.185

>  <template_combo_score>  (1) 
0.374

$$$$
5C28_color_pose
     RDKit          3D

 12 13  0  0  0  0  0  0  0  0999 V2000
   17.1439  -36.3788  -18.8109 C   0  0  0  0  0  0  0  0  0  0  0  0
   15.9300  -37.2087  -19.1056 C   0  0  0  0  0  0  0  0  0  0  0  0
   15.1424  -37.6999  -18.0718 C   0  0  0  0  0  0  0  0  0  0  0  0
   15.4607  -37.4326  -16.7060 N   0  0  0  0  0  0  0  0  0  0  0  0
   14.0451  -38.4512  -18.3636 N   0  0  0  0  0  0  0  0  0  0  0  0
   13.7221  -38.7188  -19.6591 C   0  0  0  0  0  0  0  0  0  0  0  0
   12.5227  -39.5374  -19.9109 C   0  0  0  0  0  0  0  0  0  0  0  0
   11.7898  -39.5331  -21.1695 C   0  0  0  0  0  0  0  0  0  0  0  0
   12.6696  -40.7071  -20.9325 C   0  0  0  0  0  0  0  0  0  0  0  0
   14.4942  -38.2373  -20.6743 N   0  0  0  0  0  0  0  0  0  0  0  0
   15.5892  -37.4896  -20.4308 C   0  0  0  0  0  0  0  0  0  0  0  0
   16.5824  -36.8700  -21.7311 Cl  0  0  0  0  0  0  0  0  0  0  0  0
  1  2  1  0
  2  3  2  0
  3  4  1  0
  3  5  1  0
  5  6  2  0
  6  7  1  0
  7  8  1  0
  8  9  1  0
  6 10  1  0
 10 11  2  0
 11 12  1  0
 11  2  1  0
  9  7  1  0
M  END
>  <shape_align_shape_tanimoto>  (2) 
0.55888229139502532

>  <shape_align_color_tanimoto>  (2) 
0.19306005298976364

>  <metric>  (2) 
color

>  <metric_score>  (2) 
0.193

>  <template_pid>  (2) 
5C28

>  <template_shape_score>  (2) 
0.559

>  <template_color_score>  (2) 
0.193

>  <template_combo_score>  (2) 
0.376

$$$$
5C28_combo_pose
     RDKit          3D

 12 13  0  0  0  0  0  0  0  0999 V2000
   17.1439  -36.3788  -18.8109 C   0  0  0  0  0  0  0  0  0  0  0  0
   15.9300  -37.2087  -19.1056 C   0  0  0  0  0  0  0  0  0  0  0  0
   15.1424  -37.6999  -18.0718 C   0  0  0  0  0  0  0  0  0  0  0  0
   15.4607  -37.4326  -16.7060 N   0  0  0  0  0  0  0  0  0  0  0  0
   14.0451  -38.4512  -18.3636 N   0  0  0  0  0  0  0  0  0  0  0  0
   13.7221  -38.7188  -19.6591 C   0  0  0  0  0  0  0  0  0  0  0  0
   12.5227  -39.5374  -19.9109 C   0  0  0  0  0  0  0  0  0  0  0  0
   11.7898  -39.5331  -21.1695 C   0  0  0  0  0  0  0  0  0  0  0  0
   12.6696  -40.7071  -20.9325 C   0  0  0  0  0  0  0  0  0  0  0  0
   14.4942  -38.2373  -20.6743 N   0  0  0  0  0  0  0  0  0  0  0  0
   15.5892  -37.4896  -20.4308 C   0  0  0  0  0  0  0  0  0  0  0  0
   16.5824  -36.8700  -21.7311 Cl  0  0  0  0  0  0  0  0  0  0  0  0
  1  2  1  0
  2  3  2  0
  3  4  1  0
  3  5  1  0
  5  6  2  0
  6  7  1  0
  7  8  1  0
  8  9  1  0
  6 10  1  0
 10 11  2  0
 11 12  1  0
 11  2  1  0
  9  7  1  0
M  END
>  <shape_align_shape_tanimoto>  (3) 
0.55888229139502532

>  <shape_align_color_tanimoto>  (3) 
0.19306005298976364

>  <metric>  (3) 
combo

>  <metric_score>  (3) 
0.376

>  <template_pid>  (3) 
5C28

>  <template_shape_score>  (3) 
0.559

>  <template_color_score>  (3) 
0.193

>  <template_combo_score>  (3) 
0.376

$$$$
