5LBQ_shape_pose
     RDKit          3D

 35 38  0  0  0  0  0  0  0  0999 V2000
    4.4222   82.6024   83.3231 C   0  0  0  0  0  0  0  0  0  0  0  0
    3.2573   81.8853   83.0923 O   0  0  0  0  0  0  0  0  0  0  0  0
    2.9797   80.9481   82.1477 C   0  0  0  0  0  0  0  0  0  0  0  0
    3.9075   80.5437   81.2077 C   0  0  0  0  0  0  0  0  0  0  0  0
    3.5310   79.5722   80.2767 C   0  0  0  0  0  0  0  0  0  0  0  0
    4.4395   79.1964   79.3671 N   0  0  0  0  0  0  0  0  0  0  0  0
    4.1311   78.2832   78.4559 C   0  0  0  0  0  0  0  0  0  0  0  0
    5.1126   77.8991   77.5169 N   0  0  0  0  0  0  0  0  0  0  0  0
    4.8402   76.9692   76.4187 C   0  0  0  0  0  0  0  0  0  0  0  0
    3.7762   77.6020   75.4952 C   0  0  0  0  0  0  0  0  0  0  0  0
    4.4085   78.8968   75.0310 C   0  0  0  0  0  0  0  0  0  0  0  0
    3.6023   79.6850   74.1571 N   0  0  0  0  0  0  0  0  0  0  0  0
    2.6087   78.9731   73.4137 C   0  0  0  0  0  0  0  0  0  0  0  0
    2.9156   80.6636   75.0113 C   0  0  0  0  0  0  0  0  0  0  0  0
    2.9187   77.7416   78.4501 N   0  0  0  0  0  0  0  0  0  0  0  0
    1.9321   78.0486   79.3220 C   0  0  0  0  0  0  0  0  0  0  0  0
    0.6724   77.4442   79.2996 N   0  0  0  0  0  0  0  0  0  0  0  0
    0.3381   76.4585   78.2922 C   0  0  1  0  0  0  0  0  0  0  0  0
    1.2738   75.3116   78.1765 C   0  0  0  0  0  0  0  0  0  0  0  0
    0.7058   73.9916   78.5816 C   0  0  0  0  0  0  0  0  0  0  0  0
   -0.1658   74.0380   79.7097 N   0  0  1  0  0  0  0  0  0  0  0  0
    0.5165   74.1719   80.9880 C   0  0  0  0  0  0  0  0  0  0  0  0
    1.0136   72.8687   81.4587 C   0  0  0  0  0  0  0  0  0  0  0  0
    0.1604   72.0739   82.2205 C   0  0  0  0  0  0  0  0  0  0  0  0
    0.6135   70.8441   82.6676 C   0  0  0  0  0  0  0  0  0  0  0  0
    1.8861   70.4219   82.3601 C   0  0  0  0  0  0  0  0  0  0  0  0
    2.7659   71.1897   81.6001 C   0  0  0  0  0  0  0  0  0  0  0  0
    2.2779   72.4089   81.1743 C   0  0  0  0  0  0  0  0  0  0  0  0
   -1.2603   74.9581   79.5577 C   0  0  0  0  0  0  0  0  0  0  0  0
   -1.0944   76.0180   78.5302 C   0  0  0  0  0  0  0  0  0  0  0  0
    2.2730   79.0148   80.2741 C   0  0  0  0  0  0  0  0  0  0  0  0
    1.3856   79.4464   81.2244 C   0  0  0  0  0  0  0  0  0  0  0  0
    1.6846   80.4023   82.1754 C   0  0  0  0  0  0  0  0  0  0  0  0
    0.7706   80.8330   83.1329 O   0  0  0  0  0  0  0  0  0  0  0  0
   -0.5207   80.2534   83.0944 C   0  0  0  0  0  0  0  0  0  0  0  0
  1  2  1  0
  2  3  1  0
  3  4  2  0
  4  5  1  0
  5  6  2  0
  6  7  1  0
  7  8  1  0
  8  9  1  0
  9 10  1  0
 10 11  1  0
 11 12  1  0
 12 13  1  0
 12 14  1  0
  7 15  2  0
 15 16  1  0
 16 17  1  0
 18 17  1  1
 18 19  1  0
 19 20  1  0
 20 21  1  0
 21 22  1  1
 22 23  1  0
 23 24  2  0
 24 25  1  0
 25 26  2  0
 26 27  1  0
 27 28  2  0
 21 29  1  0
 29 30  1  0
 16 31  2  0
 31 32  1  0
 32 33  2  0
 33 34  1  0
 34 35  1  0
 33  3  1  0
 31  5  1  0
 30 18  1  0
 28 23  1  0
M  CHG  2  12   1  21   1
M  END
>  <shape_align_shape_tanimoto>  (1) 
0.66484284975655816

>  <shape_align_color_tanimoto>  (1) 
0.059827465611805589

>  <metric>  (1) 
shape

>  <metric_score>  (1) 
0.665

>  <template_pid>  (1) 
5LBQ

>  <template_shape_score>  (1) 
0.665

>  <template_color_score>  (1) 
0.060

>  <template_combo_score>  (1) 
0.362

$$$$
5LBQ_color_pose
     RDKit          3D

 35 38  0  0  0  0  0  0  0  0999 V2000
    8.2839   80.3176   78.3283 C   0  0  0  0  0  0  0  0  0  0  0  0
    7.3869   79.5122   77.5944 O   0  0  0  0  0  0  0  0  0  0  0  0
    6.1145   79.2852   78.0860 C   0  0  0  0  0  0  0  0  0  0  0  0
    5.6352   79.7955   79.2666 C   0  0  0  0  0  0  0  0  0  0  0  0
    4.3453   79.5133   79.6778 C   0  0  0  0  0  0  0  0  0  0  0  0
    3.8324   79.9909   80.8314 N   0  0  0  0  0  0  0  0  0  0  0  0
    2.5660   79.6971   81.2116 C   0  0  0  0  0  0  0  0  0  0  0  0
    2.1086   80.2257   82.4235 N   0  0  0  0  0  0  0  0  0  0  0  0
    1.3529   81.4475   82.5792 C   0  0  0  0  0  0  0  0  0  0  0  0
    0.0163   81.3552   81.8593 C   0  0  0  0  0  0  0  0  0  0  0  0
   -0.7560   82.6253   82.0416 C   0  0  0  0  0  0  0  0  0  0  0  0
   -1.0360   82.9497   83.4122 N   0  0  0  0  0  0  0  0  0  0  0  0
   -1.9033   84.1118   83.4757 C   0  0  0  0  0  0  0  0  0  0  0  0
   -1.5532   81.8785   84.2053 C   0  0  0  0  0  0  0  0  0  0  0  0
    1.7425   78.9271   80.4875 N   0  0  0  0  0  0  0  0  0  0  0  0
    2.2044   78.4249   79.3279 C   0  0  0  0  0  0  0  0  0  0  0  0
    1.3105   77.6172   78.5732 N   0  0  0  0  0  0  0  0  0  0  0  0
   -0.0350   77.3618   79.0425 C   0  0  1  0  0  0  0  0  0  0  0  0
   -0.8273   76.5236   78.0728 C   0  0  0  0  0  0  0  0  0  0  0  0
   -0.4552   75.0764   78.0570 C   0  0  0  0  0  0  0  0  0  0  0  0
   -0.3447   74.4741   79.3524 N   0  0  1  0  0  0  0  0  0  0  0  0
    0.3180   73.2077   79.1811 C   0  0  0  0  0  0  0  0  0  0  0  0
    0.9880   72.6722   80.3619 C   0  0  0  0  0  0  0  0  0  0  0  0
    2.3153   72.8544   80.6830 C   0  0  0  0  0  0  0  0  0  0  0  0
    2.8755   72.3199   81.8323 C   0  0  0  0  0  0  0  0  0  0  0  0
    2.1191   71.5736   82.7145 C   0  0  0  0  0  0  0  0  0  0  0  0
    0.7814   71.3838   82.4008 C   0  0  0  0  0  0  0  0  0  0  0  0
    0.2218   71.9167   81.2544 C   0  0  0  0  0  0  0  0  0  0  0  0
    0.2920   75.2462   80.3443 C   0  0  0  0  0  0  0  0  0  0  0  0
   -0.1342   76.6975   80.3667 C   0  0  0  0  0  0  0  0  0  0  0  0
    3.4915   78.7122   78.9237 C   0  0  0  0  0  0  0  0  0  0  0  0
    3.9772   78.2136   77.7579 C   0  0  0  0  0  0  0  0  0  0  0  0
    5.2785   78.4859   77.3227 C   0  0  0  0  0  0  0  0  0  0  0  0
    5.7294   77.9525   76.1229 O   0  0  0  0  0  0  0  0  0  0  0  0
    4.8705   77.1451   75.3601 C   0  0  0  0  0  0  0  0  0  0  0  0
  1  2  1  0
  2  3  1  0
  3  4  2  0
  4  5  1  0
  5  6  2  0
  6  7  1  0
  7  8  1  0
  8  9  1  0
  9 10  1  0
 10 11  1  0
 11 12  1  0
 12 13  1  0
 12 14  1  0
  7 15  2  0
 15 16  1  0
 16 17  1  0
 18 17  1  6
 18 19  1  0
 19 20  1  0
 20 21  1  0
 21 22  1  6
 22 23  1  0
 23 24  2  0
 24 25  1  0
 25 26  2  0
 26 27  1  0
 27 28  2  0
 21 29  1  0
 29 30  1  0
 16 31  2  0
 31 32  1  0
 32 33  2  0
 33 34  1  0
 34 35  1  0
 33  3  1  0
 31  5  1  0
 30 18  1  0
 28 23  1  0
M  CHG  2  12   1  21   1
M  END
>  <shape_align_shape_tanimoto>  (2) 
0.54823228475489594

>  <shape_align_color_tanimoto>  (2) 
0.15135231602266036

>  <metric>  (2) 
color

>  <metric_score>  (2) 
0.151

>  <template_pid>  (2) 
5LBQ

>  <template_shape_score>  (2) 
0.548

>  <template_color_score>  (2) 
0.151

>  <template_combo_score>  (2) 
0.350

$$$$
5LBQ_combo_pose
     RDKit          3D

 35 38  0  0  0  0  0  0  0  0999 V2000
    0.4272   69.0896   81.9796 C   0  0  0  0  0  0  0  0  0  0  0  0
    1.4364   70.0496   82.1377 O   0  0  0  0  0  0  0  0  0  0  0  0
    1.3662   71.2838   81.5394 C   0  0  0  0  0  0  0  0  0  0  0  0
    0.3209   71.6741   80.7496 C   0  0  0  0  0  0  0  0  0  0  0  0
    0.3528   72.9332   80.1999 C   0  0  0  0  0  0  0  0  0  0  0  0
   -0.6815   73.3021   79.4253 N   0  0  0  0  0  0  0  0  0  0  0  0
   -0.6782   74.5349   78.8696 C   0  0  0  0  0  0  0  0  0  0  0  0
   -1.7473   74.9545   78.0473 N   0  0  0  0  0  0  0  0  0  0  0  0
   -1.7767   76.2691   77.4406 C   0  0  0  0  0  0  0  0  0  0  0  0
   -2.9886   76.4742   76.6178 C   0  0  0  0  0  0  0  0  0  0  0  0
   -3.1665   75.5382   75.4990 C   0  0  0  0  0  0  0  0  0  0  0  0
   -2.1593   75.5126   74.5132 N   0  0  0  0  0  0  0  0  0  0  0  0
   -1.4721   76.7223   74.2756 C   0  0  0  0  0  0  0  0  0  0  0  0
   -1.1595   74.4887   74.7868 C   0  0  0  0  0  0  0  0  0  0  0  0
    0.3493   75.3685   79.0967 N   0  0  0  0  0  0  0  0  0  0  0  0
    1.3940   75.0440   79.8573 C   0  0  0  0  0  0  0  0  0  0  0  0
    2.4213   75.9814   80.0380 N   0  0  0  0  0  0  0  0  0  0  0  0
    2.2605   77.2536   79.3704 C   0  0  1  0  0  0  0  0  0  0  0  0
    1.0286   77.9633   79.8175 C   0  0  0  0  0  0  0  0  0  0  0  0
    1.3923   79.1636   80.6790 C   0  0  0  0  0  0  0  0  0  0  0  0
    2.0131   80.1299   79.8485 N   0  0  1  0  0  0  0  0  0  0  0  0
    2.5036   81.1939   80.6731 C   0  0  0  0  0  0  0  0  0  0  0  0
    1.9579   81.1582   82.0359 C   0  0  0  0  0  0  0  0  0  0  0  0
    2.5615   80.5099   83.0746 C   0  0  0  0  0  0  0  0  0  0  0  0
    2.0394   80.4857   84.3367 C   0  0  0  0  0  0  0  0  0  0  0  0
    0.8663   81.1232   84.6169 C   0  0  0  0  0  0  0  0  0  0  0  0
    0.2432   81.7804   83.5891 C   0  0  0  0  0  0  0  0  0  0  0  0
    0.7742   81.7978   82.3328 C   0  0  0  0  0  0  0  0  0  0  0  0
    3.0252   79.5218   79.0642 C   0  0  0  0  0  0  0  0  0  0  0  0
    3.4214   78.1479   79.5497 C   0  0  0  0  0  0  0  0  0  0  0  0
    1.3858   73.8001   80.4149 C   0  0  0  0  0  0  0  0  0  0  0  0
    2.4298   73.4123   81.2028 C   0  0  0  0  0  0  0  0  0  0  0  0
    2.4114   72.1566   81.7588 C   0  0  0  0  0  0  0  0  0  0  0  0
    3.4482   71.7667   82.5437 O   0  0  0  0  0  0  0  0  0  0  0  0
    4.5120   72.6443   82.7714 C   0  0  0  0  0  0  0  0  0  0  0  0
  1  2  1  0
  2  3  1  0
  3  4  2  0
  4  5  1  0
  5  6  2  0
  6  7  1  0
  7  8  1  0
  8  9  1  0
  9 10  1  0
 10 11  1  0
 11 12  1  0
 12 13  1  0
 12 14  1  0
  7 15  2  0
 15 16  1  0
 16 17  1  0
 18 17  1  1
 18 19  1  0
 19 20  1  0
 20 21  1  0
 21 22  1  1
 22 23  1  0
 23 24  2  0
 24 25  1  0
 25 26  2  0
 26 27  1  0
 27 28  2  0
 21 29  1  0
 29 30  1  0
 16 31  2  0
 31 32  1  0
 32 33  2  0
 33 34  1  0
 34 35  1  0
 33  3  1  0
 31  5  1  0
 30 18  1  0
 28 23  1  0
M  CHG  2  12   1  21   1
M  END
>  <shape_align_shape_tanimoto>  (3) 
0.61041973617919187

>  <shape_align_color_tanimoto>  (3) 
0.12344024809807573

>  <metric>  (3) 
combo

>  <metric_score>  (3) 
0.367

>  <template_pid>  (3) 
5LBQ

>  <template_shape_score>  (3) 
0.610

>  <template_color_score>  (3) 
0.123

>  <template_combo_score>  (3) 
0.367

$$$$
