2AFW_shape_pose
     RDKit          3D

 11 11  0  0  0  0  0  0  0  0999 V2000
   45.4278   52.1922   34.8171 C   0  0  0  0  0  0  0  0  0  0  0  0
   45.7157   51.3887   33.5844 C   0  0  0  0  0  0  0  0  0  0  0  0
   46.7531   50.6820   33.6119 O   0  0  0  0  0  0  0  0  0  0  0  0
   44.8453   51.4410   32.4572 N   0  0  0  0  0  0  0  0  0  0  0  0
   45.2146   50.6244   31.3131 C   0  0  0  0  0  0  0  0  0  0  0  0
   44.2344   50.7464   30.1724 C   0  0  0  0  0  0  0  0  0  0  0  0
   44.7105   49.8757   29.0694 C   0  0  0  0  0  0  0  0  0  0  0  0
   45.8461   49.0680   29.0300 C   0  0  0  0  0  0  0  0  0  0  0  0
   45.8769   48.4578   27.8275 N   0  0  0  0  0  0  0  0  0  0  0  0
   44.8061   48.8505   27.1113 C   0  0  0  0  0  0  0  0  0  0  0  0
   44.1097   49.7092   27.8775 N   0  0  0  0  0  0  0  0  0  0  0  0
  1  2  1  0
  2  3  2  0
  2  4  1  0
  4  5  1  0
  5  6  1  0
  6  7  1  0
  7  8  2  0
  8  9  1  0
  9 10  1  0
 10 11  2  0
 11  7  1  0
M  END
>  <shape_align_shape_tanimoto>  (1) 
0.4488837754651942

>  <shape_align_color_tanimoto>  (1) 
0.082958222382111924

>  <metric>  (1) 
shape

>  <metric_score>  (1) 
0.449

>  <template_pid>  (1) 
2AFW

>  <template_shape_score>  (1) 
0.449

>  <template_color_score>  (1) 
0.083

>  <template_combo_score>  (1) 
0.266

$$$$
2AFW_color_pose
     RDKit          3D

 11 11  0  0  0  0  0  0  0  0999 V2000
   46.0563   50.4480   33.3194 C   0  0  0  0  0  0  0  0  0  0  0  0
   45.3206   51.2112   32.2665 C   0  0  0  0  0  0  0  0  0  0  0  0
   45.2184   52.4491   32.3471 O   0  0  0  0  0  0  0  0  0  0  0  0
   44.7296   50.5384   31.1632 N   0  0  0  0  0  0  0  0  0  0  0  0
   44.0099   51.2433   30.1249 C   0  0  0  0  0  0  0  0  0  0  0  0
   43.5281   50.2117   29.1285 C   0  0  0  0  0  0  0  0  0  0  0  0
   44.6996   49.4954   28.5590 C   0  0  0  0  0  0  0  0  0  0  0  0
   46.0462   49.6831   28.8425 C   0  0  0  0  0  0  0  0  0  0  0  0
   46.7986   48.8357   28.1174 N   0  0  0  0  0  0  0  0  0  0  0  0
   45.9354   48.1007   27.3653 C   0  0  0  0  0  0  0  0  0  0  0  0
   44.6752   48.4957   27.6294 N   0  0  0  0  0  0  0  0  0  0  0  0
  1  2  1  0
  2  3  2  0
  2  4  1  0
  4  5  1  0
  5  6  1  0
  6  7  1  0
  7  8  2  0
  8  9  1  0
  9 10  1  0
 10 11  2  0
 11  7  1  0
M  END
>  <shape_align_shape_tanimoto>  (2) 
0.41769078266167942

>  <shape_align_color_tanimoto>  (2) 
0.11406504051895455

>  <metric>  (2) 
color

>  <metric_score>  (2) 
0.114

>  <template_pid>  (2) 
2AFW

>  <template_shape_score>  (2) 
0.418

>  <template_color_score>  (2) 
0.114

>  <template_combo_score>  (2) 
0.266

$$$$
2AFW_combo_pose
     RDKit          3D

 11 11  0  0  0  0  0  0  0  0999 V2000
   45.4278   52.1922   34.8171 C   0  0  0  0  0  0  0  0  0  0  0  0
   45.7157   51.3887   33.5844 C   0  0  0  0  0  0  0  0  0  0  0  0
   46.7531   50.6820   33.6119 O   0  0  0  0  0  0  0  0  0  0  0  0
   44.8453   51.4410   32.4572 N   0  0  0  0  0  0  0  0  0  0  0  0
   45.2146   50.6244   31.3131 C   0  0  0  0  0  0  0  0  0  0  0  0
   44.2344   50.7464   30.1724 C   0  0  0  0  0  0  0  0  0  0  0  0
   44.7105   49.8757   29.0694 C   0  0  0  0  0  0  0  0  0  0  0  0
   45.8461   49.0680   29.0300 C   0  0  0  0  0  0  0  0  0  0  0  0
   45.8769   48.4578   27.8275 N   0  0  0  0  0  0  0  0  0  0  0  0
   44.8061   48.8505   27.1113 C   0  0  0  0  0  0  0  0  0  0  0  0
   44.1097   49.7092   27.8775 N   0  0  0  0  0  0  0  0  0  0  0  0
  1  2  1  0
  2  3  2  0
  2  4  1  0
  4  5  1  0
  5  6  1  0
  6  7  1  0
  7  8  2  0
  8  9  1  0
  9 10  1  0
 10 11  2  0
 11  7  1  0
M  END
>  <shape_align_shape_tanimoto>  (3) 
0.4488837754651942

>  <shape_align_color_tanimoto>  (3) 
0.082958222382111924

>  <metric>  (3) 
combo

>  <metric_score>  (3) 
0.266

>  <template_pid>  (3) 
2AFW

>  <template_shape_score>  (3) 
0.449

>  <template_color_score>  (3) 
0.083

>  <template_combo_score>  (3) 
0.266

$$$$
