6FJM_shape_pose
     RDKit          3D

 54 56  0  0  0  0  0  0  0  0999 V2000
   -9.7229  -49.8330   28.8575 C   0  0  0  0  0  0  0  0  0  0  0  0
   -9.8714  -49.3495   27.4538 C   0  0  0  0  0  0  0  0  0  0  0  0
  -10.8595  -49.7996   26.6898 C   0  0  0  0  0  0  0  0  0  0  0  0
  -11.0793  -49.3712   25.2839 C   0  0  2  0  0  0  0  0  0  0  0  0
  -10.2935  -48.1796   25.1655 O   0  0  0  0  0  0  0  0  0  0  0  0
  -12.4662  -48.9432   24.9987 C   0  0  2  0  0  0  0  0  0  0  0  0
  -12.5673  -48.5481   23.5427 C   0  0  0  0  0  0  0  0  0  0  0  0
  -12.7659  -47.7503   25.8054 C   0  0  0  0  0  0  0  0  0  0  0  0
  -13.2242  -46.6777   25.2888 O   0  0  0  0  0  0  0  0  0  0  0  0
  -12.5739  -47.6844   27.1935 O   0  0  0  0  0  0  0  0  0  0  0  0
  -12.8689  -46.5230   27.9448 C   0  0  0  0  0  0  0  0  0  0  0  0
  -13.5376  -50.0634   25.2064 C   0  0  2  0  0  0  0  0  0  0  0  0
  -13.2078  -51.1601   24.3312 C   0  0  0  0  0  0  0  0  0  0  0  0
  -13.8167  -52.4046   24.0489 C   0  0  0  0  0  0  0  0  0  0  0  0
  -14.8639  -53.0601   24.4077 C   0  0  0  0  0  0  0  0  0  0  0  0
  -15.8292  -52.5686   25.3608 C   0  0  0  0  0  0  0  0  0  0  0  0
  -16.8649  -53.2968   25.6485 C   0  0  0  0  0  0  0  0  0  0  0  0
  -17.8616  -52.8304   26.5947 C   0  0  0  0  0  0  0  0  0  0  0  0
  -17.8760  -51.7231   27.2400 C   0  0  0  0  0  0  0  0  0  0  0  0
  -18.8781  -51.2489   28.1850 C   0  0  0  0  0  0  0  0  0  0  0  0
  -20.0428  -50.8061   27.6267 N   0  0  0  0  0  0  0  0  0  0  0  0
  -20.8428  -50.4039   28.5954 C   0  0  0  0  0  0  0  0  0  0  0  0
  -20.1541  -50.6068   29.7771 C   0  0  0  0  0  0  0  0  0  0  0  0
  -18.9565  -51.1249   29.4903 O   0  0  0  0  0  0  0  0  0  0  0  0
  -22.1638  -49.8207   28.4191 C   0  0  0  0  0  0  0  0  0  0  0  0
  -22.1891  -48.5514   28.6520 O   0  0  0  0  0  0  0  0  0  0  0  0
  -23.3055  -50.5069   28.0403 O   0  0  0  0  0  0  0  0  0  0  0  0
  -24.5584  -49.8031   27.8819 C   0  0  2  0  0  0  0  0  0  0  0  0
  -25.3212  -50.0764   29.2174 C   0  0  1  0  0  0  0  0  0  0  0  0
  -25.4473  -51.6212   29.3244 C   0  0  0  0  0  0  0  0  0  0  0  0
  -24.5910  -49.6403   30.4016 C   0  0  0  0  0  0  0  0  0  0  0  0
  -25.1121  -48.6667   31.0658 O   0  0  0  0  0  0  0  0  0  0  0  0
  -23.4149  -50.1318   30.9162 O   0  0  0  0  0  0  0  0  0  0  0  0
  -22.8893  -49.5334   32.1208 C   0  0  0  0  0  0  0  0  0  0  0  0
  -26.7116  -49.5905   29.1922 C   0  0  1  0  0  0  0  0  0  0  0  0
  -27.5610  -50.1824   28.2958 O   0  0  0  0  0  0  0  0  0  0  0  0
  -27.2987  -49.8934   30.5618 C   0  0  0  0  0  0  0  0  0  0  0  0
  -27.8756  -48.9044   31.2450 C   0  0  0  0  0  0  0  0  0  0  0  0
  -28.4631  -49.1570   32.5884 C   0  0  0  0  0  0  0  0  0  0  0  0
  -25.4217  -50.1321   26.7983 C   0  0  0  0  0  0  0  0  0  0  0  0
  -25.2783  -50.1681   25.3814 C   0  0  0  0  0  0  0  0  0  0  0  0
  -24.3635  -49.8993   24.5207 C   0  0  0  0  0  0  0  0  0  0  0  0
  -23.0410  -49.4090   24.8386 C   0  0  0  0  0  0  0  0  0  0  0  0
  -22.2064  -49.1911   23.8678 C   0  0  0  0  0  0  0  0  0  0  0  0
  -20.8705  -48.7021   24.1617 C   0  0  0  0  0  0  0  0  0  0  0  0
  -20.3729  -48.4331   25.3131 C   0  0  0  0  0  0  0  0  0  0  0  0
  -18.9984  -47.9419   25.5639 C   0  0  0  0  0  0  0  0  0  0  0  0
  -18.0419  -48.8895   25.4652 N   0  0  0  0  0  0  0  0  0  0  0  0
  -16.8812  -48.2781   25.7285 C   0  0  0  0  0  0  0  0  0  0  0  0
  -17.1725  -46.9329   25.9850 C   0  0  0  0  0  0  0  0  0  0  0  0
  -18.4783  -46.7817   25.8713 O   0  0  0  0  0  0  0  0  0  0  0  0
  -15.6049  -48.9351   25.8045 C   0  0  0  0  0  0  0  0  0  0  0  0
  -15.2008  -49.1062   27.0257 O   0  0  0  0  0  0  0  0  0  0  0  0
  -14.7702  -49.3992   24.8366 O   0  0  0  0  0  0  0  0  0  0  0  0
  1  2  1  0
  2  3  2  0
  3  4  1  0
  4  5  1  1
  4  6  1  0
  6  7  1  6
  6  8  1  0
  8  9  2  0
  8 10  1  0
 10 11  1  0
  6 12  1  0
 12 13  1  6
 13 14  1  0
 14 15  2  0
 15 16  1  0
 16 17  2  0
 17 18  1  0
 18 19  2  0
 19 20  1  0
 20 21  2  0
 21 22  1  0
 22 23  2  0
 23 24  1  0
 22 25  1  0
 25 26  2  0
 25 27  1  0
 27 28  1  0
 28 29  1  0
 29 30  1  1
 29 31  1  0
 31 32  2  0
 31 33  1  0
 33 34  1  0
 29 35  1  0
 35 36  1  6
 35 37  1  0
 37 38  2  0
 38 39  1  0
 28 40  1  6
 40 41  1  0
 41 42  2  0
 42 43  1  0
 43 44  2  0
 44 45  1  0
 45 46  2  0
 46 47  1  0
 47 48  2  0
 48 49  1  0
 49 50  2  0
 50 51  1  0
 49 52  1  0
 52 53  2  0
 52 54  1  0
 54 12  1  0
 24 20  1  0
 51 47  1  0
M  END
>  <shape_align_shape_tanimoto>  (1) 
0.42375927208667474

>  <shape_align_color_tanimoto>  (1) 
0.012658349175642101

>  <metric>  (1) 
shape

>  <metric_score>  (1) 
0.424

>  <template_pid>  (1) 
6FJM

>  <template_shape_score>  (1) 
0.424

>  <template_color_score>  (1) 
0.013

>  <template_combo_score>  (1) 
0.218

$$$$
6FJM_color_pose
     RDKit          3D

 54 56  0  0  0  0  0  0  0  0999 V2000
  -15.5692  -45.4081   24.6197 C   0  0  0  0  0  0  0  0  0  0  0  0
  -14.4443  -46.3158   24.9519 C   0  0  0  0  0  0  0  0  0  0  0  0
  -14.5107  -47.6361   24.8607 C   0  0  0  0  0  0  0  0  0  0  0  0
  -13.4051  -48.5646   25.1859 C   0  0  2  0  0  0  0  0  0  0  0  0
  -12.9204  -49.1499   23.9796 O   0  0  0  0  0  0  0  0  0  0  0  0
  -14.0559  -49.7330   25.9324 C   0  0  2  0  0  0  0  0  0  0  0  0
  -12.9948  -50.7544   26.3169 C   0  0  0  0  0  0  0  0  0  0  0  0
  -14.8542  -50.4413   24.8627 C   0  0  0  0  0  0  0  0  0  0  0  0
  -16.0713  -50.6392   24.9186 O   0  0  0  0  0  0  0  0  0  0  0  0
  -14.1713  -50.9071   23.7283 O   0  0  0  0  0  0  0  0  0  0  0  0
  -14.9634  -51.5749   22.7356 C   0  0  0  0  0  0  0  0  0  0  0  0
  -14.9454  -49.3238   26.9737 C   0  0  2  0  0  0  0  0  0  0  0  0
  -14.5501  -48.5520   28.1867 C   0  0  0  0  0  0  0  0  0  0  0  0
  -13.9493  -47.2669   28.1376 C   0  0  0  0  0  0  0  0  0  0  0  0
  -14.4674  -46.1280   28.5248 C   0  0  0  0  0  0  0  0  0  0  0  0
  -15.7296  -45.7908   29.0822 C   0  0  0  0  0  0  0  0  0  0  0  0
  -16.8065  -46.4349   29.4038 C   0  0  0  0  0  0  0  0  0  0  0  0
  -18.0096  -45.7124   29.9968 C   0  0  0  0  0  0  0  0  0  0  0  0
  -19.0859  -46.4088   30.3012 C   0  0  0  0  0  0  0  0  0  0  0  0
  -20.3050  -45.7866   30.8775 C   0  0  0  0  0  0  0  0  0  0  0  0
  -21.4672  -46.1826   30.2733 N   0  0  0  0  0  0  0  0  0  0  0  0
  -22.4808  -45.5534   30.8759 C   0  0  0  0  0  0  0  0  0  0  0  0
  -21.9105  -44.7745   31.8504 C   0  0  0  0  0  0  0  0  0  0  0  0
  -20.5809  -44.9640   31.7979 O   0  0  0  0  0  0  0  0  0  0  0  0
  -23.8741  -45.8035   30.4129 C   0  0  0  0  0  0  0  0  0  0  0  0
  -24.6112  -44.8017   30.4052 O   0  0  0  0  0  0  0  0  0  0  0  0
  -24.1675  -47.0637   30.0612 O   0  0  0  0  0  0  0  0  0  0  0  0
  -25.4219  -47.6062   29.5663 C   0  0  2  0  0  0  0  0  0  0  0  0
  -25.9721  -48.4199   30.6401 C   0  0  1  0  0  0  0  0  0  0  0  0
  -26.1706  -47.4529   31.8513 C   0  0  0  0  0  0  0  0  0  0  0  0
  -27.3436  -48.9628   30.4373 C   0  0  0  0  0  0  0  0  0  0  0  0
  -28.3583  -48.5079   31.0847 O   0  0  0  0  0  0  0  0  0  0  0  0
  -27.6528  -49.9894   29.5552 O   0  0  0  0  0  0  0  0  0  0  0  0
  -29.0124  -50.3842   29.4857 C   0  0  0  0  0  0  0  0  0  0  0  0
  -25.1408  -49.5910   31.1043 C   0  0  1  0  0  0  0  0  0  0  0  0
  -24.9135  -50.5129   30.1004 O   0  0  0  0  0  0  0  0  0  0  0  0
  -23.8778  -49.1909   31.7709 C   0  0  0  0  0  0  0  0  0  0  0  0
  -23.0575  -50.1857   32.1564 C   0  0  0  0  0  0  0  0  0  0  0  0
  -21.7563  -49.8323   32.8371 C   0  0  0  0  0  0  0  0  0  0  0  0
  -25.1675  -48.0312   28.1857 C   0  0  0  0  0  0  0  0  0  0  0  0
  -26.1618  -48.8342   27.4913 C   0  0  0  0  0  0  0  0  0  0  0  0
  -25.8927  -50.0492   26.9402 C   0  0  0  0  0  0  0  0  0  0  0  0
  -24.5618  -50.6346   27.0121 C   0  0  0  0  0  0  0  0  0  0  0  0
  -24.1293  -51.7720   26.5354 C   0  0  0  0  0  0  0  0  0  0  0  0
  -22.6878  -52.1780   26.7345 C   0  0  0  0  0  0  0  0  0  0  0  0
  -21.8882  -51.4141   27.3740 C   0  0  0  0  0  0  0  0  0  0  0  0
  -20.4861  -51.4864   27.7393 C   0  0  0  0  0  0  0  0  0  0  0  0
  -19.6917  -50.5661   27.0737 N   0  0  0  0  0  0  0  0  0  0  0  0
  -18.4675  -50.7550   27.5391 C   0  0  0  0  0  0  0  0  0  0  0  0
  -18.4831  -51.7747   28.4731 C   0  0  0  0  0  0  0  0  0  0  0  0
  -19.7228  -52.1605   28.5349 O   0  0  0  0  0  0  0  0  0  0  0  0
  -17.2916  -49.9356   27.2431 C   0  0  0  0  0  0  0  0  0  0  0  0
  -17.6297  -48.7868   26.9356 O   0  0  0  0  0  0  0  0  0  0  0  0
  -15.9823  -50.2665   27.2773 O   0  0  0  0  0  0  0  0  0  0  0  0
  1  2  1  0
  2  3  2  0
  3  4  1  0
  4  5  1  6
  4  6  1  0
  6  7  1  1
  6  8  1  0
  8  9  2  0
  8 10  1  0
 10 11  1  0
  6 12  1  0
 12 13  1  1
 13 14  1  0
 14 15  2  0
 15 16  1  0
 16 17  2  0
 17 18  1  0
 18 19  2  0
 19 20  1  0
 20 21  2  0
 21 22  1  0
 22 23  2  0
 23 24  1  0
 22 25  1  0
 25 26  2  0
 25 27  1  0
 27 28  1  0
 28 29  1  0
 29 30  1  1
 29 31  1  0
 31 32  2  0
 31 33  1  0
 33 34  1  0
 29 35  1  0
 35 36  1  6
 35 37  1  0
 37 38  2  0
 38 39  1  0
 28 40  1  6
 40 41  1  0
 41 42  2  0
 42 43  1  0
 43 44  2  0
 44 45  1  0
 45 46  2  0
 46 47  1  0
 47 48  2  0
 48 49  1  0
 49 50  2  0
 50 51  1  0
 49 52  1  0
 52 53  2  0
 52 54  1  0
 54 12  1  0
 24 20  1  0
 51 47  1  0
M  END
>  <shape_align_shape_tanimoto>  (2) 
0.35774319760761142

>  <shape_align_color_tanimoto>  (2) 
0.087401146047433806

>  <metric>  (2) 
color

>  <metric_score>  (2) 
0.087

>  <template_pid>  (2) 
6FJM

>  <template_shape_score>  (2) 
0.358

>  <template_color_score>  (2) 
0.087

>  <template_combo_score>  (2) 
0.223

$$$$
6FJM_combo_pose
     RDKit          3D

 54 56  0  0  0  0  0  0  0  0999 V2000
  -27.1589  -54.0117   32.2396 C   0  0  0  0  0  0  0  0  0  0  0  0
  -27.8674  -52.7664   31.8455 C   0  0  0  0  0  0  0  0  0  0  0  0
  -27.1602  -51.7955   31.2328 C   0  0  0  0  0  0  0  0  0  0  0  0
  -27.8274  -50.5078   30.8108 C   0  0  2  0  0  0  0  0  0  0  0  0
  -28.0381  -50.3888   29.4748 O   0  0  0  0  0  0  0  0  0  0  0  0
  -27.1001  -49.2917   31.4424 C   0  0  2  0  0  0  0  0  0  0  0  0
  -27.2228  -49.6628   32.9718 C   0  0  0  0  0  0  0  0  0  0  0  0
  -28.0352  -48.1237   31.3483 C   0  0  0  0  0  0  0  0  0  0  0  0
  -28.4582  -47.5233   32.3997 O   0  0  0  0  0  0  0  0  0  0  0  0
  -28.4985  -47.6263   30.1278 O   0  0  0  0  0  0  0  0  0  0  0  0
  -29.3921  -46.5124   30.1148 C   0  0  0  0  0  0  0  0  0  0  0  0
  -25.7129  -49.1037   31.0929 C   0  0  2  0  0  0  0  0  0  0  0  0
  -24.9795  -47.9235   31.6748 C   0  0  0  0  0  0  0  0  0  0  0  0
  -25.4276  -46.6218   31.2319 C   0  0  0  0  0  0  0  0  0  0  0  0
  -24.6835  -45.7558   30.5160 C   0  0  0  0  0  0  0  0  0  0  0  0
  -23.3112  -46.0644   30.1052 C   0  0  0  0  0  0  0  0  0  0  0  0
  -22.5842  -45.2358   29.4032 C   0  0  0  0  0  0  0  0  0  0  0  0
  -21.1895  -45.5383   28.9838 C   0  0  0  0  0  0  0  0  0  0  0  0
  -20.5010  -44.6624   28.2774 C   0  0  0  0  0  0  0  0  0  0  0  0
  -19.1150  -44.8958   27.8345 C   0  0  0  0  0  0  0  0  0  0  0  0
  -18.5019  -46.0896   27.9017 N   0  0  0  0  0  0  0  0  0  0  0  0
  -17.2934  -45.8516   27.4201 C   0  0  0  0  0  0  0  0  0  0  0  0
  -17.1870  -44.4802   27.0550 C   0  0  0  0  0  0  0  0  0  0  0  0
  -18.3215  -43.9751   27.3336 O   0  0  0  0  0  0  0  0  0  0  0  0
  -16.1707  -46.7891   27.3172 C   0  0  0  0  0  0  0  0  0  0  0  0
  -15.5911  -46.8832   28.4798 O   0  0  0  0  0  0  0  0  0  0  0  0
  -15.6932  -47.4826   26.3323 O   0  0  0  0  0  0  0  0  0  0  0  0
  -14.7669  -48.3649   25.9261 C   0  0  2  0  0  0  0  0  0  0  0  0
  -13.6772  -48.1706   25.0272 C   0  0  1  0  0  0  0  0  0  0  0  0
  -13.9009  -47.8295   23.5806 C   0  0  0  0  0  0  0  0  0  0  0  0
  -12.7751  -47.0023   25.5522 C   0  0  0  0  0  0  0  0  0  0  0  0
  -12.5829  -45.9919   24.8761 O   0  0  0  0  0  0  0  0  0  0  0  0
  -12.2642  -47.2790   26.8067 O   0  0  0  0  0  0  0  0  0  0  0  0
  -11.4172  -46.4052   27.5003 C   0  0  0  0  0  0  0  0  0  0  0  0
  -12.6665  -49.2861   25.0777 C   0  0  1  0  0  0  0  0  0  0  0  0
  -13.0164  -50.5327   24.6953 O   0  0  0  0  0  0  0  0  0  0  0  0
  -11.2830  -48.8550   24.6657 C   0  0  0  0  0  0  0  0  0  0  0  0
  -10.2323  -49.1467   25.4613 C   0  0  0  0  0  0  0  0  0  0  0  0
   -8.8283  -48.7773   25.1578 C   0  0  0  0  0  0  0  0  0  0  0  0
  -15.4610  -49.7200   25.7809 C   0  0  0  0  0  0  0  0  0  0  0  0
  -15.6588  -50.3148   27.1228 C   0  0  0  0  0  0  0  0  0  0  0  0
  -16.7466  -50.6384   27.7070 C   0  0  0  0  0  0  0  0  0  0  0  0
  -18.1179  -50.5745   27.3538 C   0  0  0  0  0  0  0  0  0  0  0  0
  -18.8846  -50.2047   26.3793 C   0  0  0  0  0  0  0  0  0  0  0  0
  -20.3565  -50.3859   26.5758 C   0  0  0  0  0  0  0  0  0  0  0  0
  -21.3102  -50.0875   25.7609 C   0  0  0  0  0  0  0  0  0  0  0  0
  -22.6837  -50.3985   26.2738 C   0  0  0  0  0  0  0  0  0  0  0  0
  -22.8273  -50.0515   27.5890 N   0  0  0  0  0  0  0  0  0  0  0  0
  -24.0667  -50.3992   27.8711 C   0  0  0  0  0  0  0  0  0  0  0  0
  -24.6736  -50.9293   26.8048 C   0  0  0  0  0  0  0  0  0  0  0  0
  -23.7804  -50.9199   25.8037 O   0  0  0  0  0  0  0  0  0  0  0  0
  -24.5399  -50.2291   29.2855 C   0  0  0  0  0  0  0  0  0  0  0  0
  -24.0378  -51.1663   29.9588 O   0  0  0  0  0  0  0  0  0  0  0  0
  -25.3487  -49.2244   29.6938 O   0  0  0  0  0  0  0  0  0  0  0  0
  1  2  1  0
  2  3  2  0
  3  4  1  0
  4  5  1  6
  4  6  1  0
  6  7  1  1
  6  8  1  0
  8  9  2  0
  8 10  1  0
 10 11  1  0
  6 12  1  0
 12 13  1  6
 13 14  1  0
 14 15  2  0
 15 16  1  0
 16 17  2  0
 17 18  1  0
 18 19  2  0
 19 20  1  0
 20 21  2  0
 21 22  1  0
 22 23  2  0
 23 24  1  0
 22 25  1  0
 25 26  2  0
 25 27  1  0
 27 28  1  0
 28 29  1  0
 29 30  1  6
 29 31  1  0
 31 32  2  0
 31 33  1  0
 33 34  1  0
 29 35  1  0
 35 36  1  6
 35 37  1  0
 37 38  2  0
 38 39  1  0
 28 40  1  6
 40 41  1  0
 41 42  2  0
 42 43  1  0
 43 44  2  0
 44 45  1  0
 45 46  2  0
 46 47  1  0
 47 48  2  0
 48 49  1  0
 49 50  2  0
 50 51  1  0
 49 52  1  0
 52 53  2  0
 52 54  1  0
 54 12  1  0
 24 20  1  0
 51 47  1  0
M  END
>  <shape_align_shape_tanimoto>  (3) 
0.3963860233666886

>  <shape_align_color_tanimoto>  (3) 
0.06160486339748053

>  <metric>  (3) 
combo

>  <metric_score>  (3) 
0.229

>  <template_pid>  (3) 
6FJM

>  <template_shape_score>  (3) 
0.396

>  <template_color_score>  (3) 
0.062

>  <template_combo_score>  (3) 
0.229

$$$$
