4A9M_shape_pose
     RDKit          3D

 23 25  0  0  0  0  0  0  0  0999 V2000
   -6.7279   11.4869    3.6961 C   0  0  0  0  0  0  0  0  0  0  0  0
   -6.0835   11.1571    2.4092 C   0  0  0  0  0  0  0  0  0  0  0  0
   -4.6941   11.1591    2.3846 C   0  0  0  0  0  0  0  0  0  0  0  0
   -4.0085   10.8569    1.2036 C   0  0  0  0  0  0  0  0  0  0  0  0
   -4.7500   10.5593    0.0732 C   0  0  0  0  0  0  0  0  0  0  0  0
   -4.1272   10.2307   -1.2083 C   0  0  0  0  0  0  0  0  0  0  0  0
   -3.7991   11.1623   -2.1848 C   0  0  0  0  0  0  0  0  0  0  0  0
   -4.0065   12.6393   -2.1308 C   0  0  0  0  0  0  0  0  0  0  0  0
   -3.2596   10.4788   -3.1862 N   0  0  0  0  0  0  0  0  0  0  0  0
   -3.2415    9.2342   -2.8866 O   0  0  0  0  0  0  0  0  0  0  0  0
   -3.7506    8.9951   -1.7006 C   0  0  0  0  0  0  0  0  0  0  0  0
   -3.9121    7.7109   -0.9949 C   0  0  0  0  0  0  0  0  0  0  0  0
   -6.1370   10.5566    0.0951 C   0  0  0  0  0  0  0  0  0  0  0  0
   -6.8272   10.8571    1.2700 C   0  0  0  0  0  0  0  0  0  0  0  0
   -8.5757   10.8631    1.3339 S   0  0  0  0  0  0  0  0  0  0  0  0
   -8.9868   12.2627    1.6909 O   0  0  0  0  0  0  0  0  0  0  0  0
   -9.0954   10.5292   -0.0282 O   0  0  0  0  0  0  0  0  0  0  0  0
   -9.1643    9.7208    2.4825 N   0  0  0  0  0  0  0  0  0  0  0  0
   -8.7328    8.4025    2.0602 C   0  0  0  0  0  0  0  0  0  0  0  0
   -7.9336    7.8245    3.2169 C   0  0  0  0  0  0  0  0  0  0  0  0
   -8.9056    6.9562    3.9709 C   0  0  0  0  0  0  0  0  0  0  0  0
  -10.2544    7.1375    3.3390 C   0  0  0  0  0  0  0  0  0  0  0  0
   -9.9037    7.4595    1.8893 C   0  0  0  0  0  0  0  0  0  0  0  0
  1  2  1  0
  2  3  2  0
  3  4  1  0
  4  5  2  0
  5  6  1  0
  6  7  1  0
  7  8  1  0
  7  9  2  0
  9 10  1  0
 10 11  1  0
 11 12  1  0
  5 13  1  0
 13 14  2  0
 14 15  1  0
 15 16  2  0
 15 17  2  0
 15 18  1  0
 18 19  1  0
 19 20  1  0
 20 21  1  0
 21 22  1  0
 22 23  1  0
 14  2  1  0
 23 19  1  0
 11  6  2  0
M  END
>  <shape_align_shape_tanimoto>  (1) 
0.71455483490367544

>  <shape_align_color_tanimoto>  (1) 
0.014851099724559395

>  <metric>  (1) 
shape

>  <metric_score>  (1) 
0.715

>  <template_pid>  (1) 
4A9M

>  <template_shape_score>  (1) 
0.715

>  <template_color_score>  (1) 
0.015

>  <template_combo_score>  (1) 
0.365

$$$$
4A9M_color_pose
     RDKit          3D

 23 25  0  0  0  0  0  0  0  0999 V2000
   -3.8932   12.8995    1.9414 C   0  0  0  0  0  0  0  0  0  0  0  0
   -5.0263   11.9351    1.9042 C   0  0  0  0  0  0  0  0  0  0  0  0
   -5.9692   11.9761    2.9003 C   0  0  0  0  0  0  0  0  0  0  0  0
   -7.0503   11.1269    2.9517 C   0  0  0  0  0  0  0  0  0  0  0  0
   -7.1621   10.2006    1.9366 C   0  0  0  0  0  0  0  0  0  0  0  0
   -8.2838    9.2704    1.9301 C   0  0  0  0  0  0  0  0  0  0  0  0
   -8.3524    8.0224    2.5074 C   0  0  0  0  0  0  0  0  0  0  0  0
   -7.2626    7.3506    3.2778 C   0  0  0  0  0  0  0  0  0  0  0  0
   -9.5808    7.5606    2.2302 N   0  0  0  0  0  0  0  0  0  0  0  0
  -10.2324    8.4469    1.5345 O   0  0  0  0  0  0  0  0  0  0  0  0
   -9.5019    9.5054    1.3191 C   0  0  0  0  0  0  0  0  0  0  0  0
   -9.9183   10.7157    0.5623 C   0  0  0  0  0  0  0  0  0  0  0  0
   -6.2125   10.1658    0.9410 C   0  0  0  0  0  0  0  0  0  0  0  0
   -5.1406   11.0073    0.8897 C   0  0  0  0  0  0  0  0  0  0  0  0
   -3.9230   11.0085   -0.3367 S   0  0  0  0  0  0  0  0  0  0  0  0
   -4.0358   12.3750   -1.0040 O   0  0  0  0  0  0  0  0  0  0  0  0
   -2.5438   11.0087    0.2624 O   0  0  0  0  0  0  0  0  0  0  0  0
   -4.0595    9.8743   -1.5524 N   0  0  0  0  0  0  0  0  0  0  0  0
   -4.0183    8.5081   -1.2458 C   0  0  0  0  0  0  0  0  0  0  0  0
   -5.0964    7.6496   -1.8336 C   0  0  0  0  0  0  0  0  0  0  0  0
   -4.6125    6.2650   -1.4041 C   0  0  0  0  0  0  0  0  0  0  0  0
   -3.0935    6.4010   -1.3260 C   0  0  0  0  0  0  0  0  0  0  0  0
   -2.7985    7.8069   -1.8419 C   0  0  0  0  0  0  0  0  0  0  0  0
  1  2  1  0
  2  3  2  0
  3  4  1  0
  4  5  2  0
  5  6  1  0
  6  7  1  0
  7  8  1  0
  7  9  2  0
  9 10  1  0
 10 11  1  0
 11 12  1  0
  5 13  1  0
 13 14  2  0
 14 15  1  0
 15 16  2  0
 15 17  2  0
 15 18  1  0
 18 19  1  0
 19 20  1  0
 20 21  1  0
 21 22  1  0
 22 23  1  0
 14  2  1  0
 23 19  1  0
 11  6  2  0
M  END
>  <shape_align_shape_tanimoto>  (2) 
0.6060770039610236

>  <shape_align_color_tanimoto>  (2) 
0.09534861841235312

>  <metric>  (2) 
color

>  <metric_score>  (2) 
0.095

>  <template_pid>  (2) 
4A9M

>  <template_shape_score>  (2) 
0.606

>  <template_color_score>  (2) 
0.095

>  <template_combo_score>  (2) 
0.351

$$$$
4A9M_combo_pose
     RDKit          3D

 23 25  0  0  0  0  0  0  0  0999 V2000
   -6.7279   11.4869    3.6961 C   0  0  0  0  0  0  0  0  0  0  0  0
   -6.0835   11.1571    2.4092 C   0  0  0  0  0  0  0  0  0  0  0  0
   -4.6941   11.1591    2.3846 C   0  0  0  0  0  0  0  0  0  0  0  0
   -4.0085   10.8569    1.2036 C   0  0  0  0  0  0  0  0  0  0  0  0
   -4.7500   10.5593    0.0732 C   0  0  0  0  0  0  0  0  0  0  0  0
   -4.1272   10.2307   -1.2083 C   0  0  0  0  0  0  0  0  0  0  0  0
   -3.7991   11.1623   -2.1848 C   0  0  0  0  0  0  0  0  0  0  0  0
   -4.0065   12.6393   -2.1308 C   0  0  0  0  0  0  0  0  0  0  0  0
   -3.2596   10.4788   -3.1862 N   0  0  0  0  0  0  0  0  0  0  0  0
   -3.2415    9.2342   -2.8866 O   0  0  0  0  0  0  0  0  0  0  0  0
   -3.7506    8.9951   -1.7006 C   0  0  0  0  0  0  0  0  0  0  0  0
   -3.9121    7.7109   -0.9949 C   0  0  0  0  0  0  0  0  0  0  0  0
   -6.1370   10.5566    0.0951 C   0  0  0  0  0  0  0  0  0  0  0  0
   -6.8272   10.8571    1.2700 C   0  0  0  0  0  0  0  0  0  0  0  0
   -8.5757   10.8631    1.3339 S   0  0  0  0  0  0  0  0  0  0  0  0
   -8.9868   12.2627    1.6909 O   0  0  0  0  0  0  0  0  0  0  0  0
   -9.0954   10.5292   -0.0282 O   0  0  0  0  0  0  0  0  0  0  0  0
   -9.1643    9.7208    2.4825 N   0  0  0  0  0  0  0  0  0  0  0  0
   -8.7328    8.4025    2.0602 C   0  0  0  0  0  0  0  0  0  0  0  0
   -7.9336    7.8245    3.2169 C   0  0  0  0  0  0  0  0  0  0  0  0
   -8.9056    6.9562    3.9709 C   0  0  0  0  0  0  0  0  0  0  0  0
  -10.2544    7.1375    3.3390 C   0  0  0  0  0  0  0  0  0  0  0  0
   -9.9037    7.4595    1.8893 C   0  0  0  0  0  0  0  0  0  0  0  0
  1  2  1  0
  2  3  2  0
  3  4  1  0
  4  5  2  0
  5  6  1  0
  6  7  1  0
  7  8  1  0
  7  9  2  0
  9 10  1  0
 10 11  1  0
 11 12  1  0
  5 13  1  0
 13 14  2  0
 14 15  1  0
 15 16  2  0
 15 17  2  0
 15 18  1  0
 18 19  1  0
 19 20  1  0
 20 21  1  0
 21 22  1  0
 22 23  1  0
 14  2  1  0
 23 19  1  0
 11  6  2  0
M  END
>  <shape_align_shape_tanimoto>  (3) 
0.71455483490367544

>  <shape_align_color_tanimoto>  (3) 
0.014851099724559395

>  <metric>  (3) 
combo

>  <metric_score>  (3) 
0.365

>  <template_pid>  (3) 
4A9M

>  <template_shape_score>  (3) 
0.715

>  <template_color_score>  (3) 
0.015

>  <template_combo_score>  (3) 
0.365

$$$$
