3ML5_shape_pose
     RDKit          3D

 13 13  0  0  0  0  0  0  0  0999 V2000
   -2.6692    7.4433   13.0961 C   0  0  0  0  0  0  0  0  0  0  0  0
   -2.8309    6.1354   13.7912 C   0  0  0  0  0  0  0  0  0  0  0  0
   -1.8586    5.3818   14.0545 O   0  0  0  0  0  0  0  0  0  0  0  0
   -4.1139    5.7344   14.1631 N   0  0  0  0  0  0  0  0  0  0  0  0
   -4.2409    4.4689   14.8319 C   0  0  0  0  0  0  0  0  0  0  0  0
   -3.3382    3.5401   15.1946 N   0  0  0  0  0  0  0  0  0  0  0  0
   -3.7703    2.4988   15.7870 N   0  0  0  0  0  0  0  0  0  0  0  0
   -4.9470    2.2429   16.0703 C   0  0  0  0  0  0  0  0  0  0  0  0
   -5.7918    0.9545   16.8397 S   0  0  0  0  0  0  0  0  0  0  0  0
   -5.8892    1.2270   18.5098 N   0  0  0  0  0  0  0  0  0  0  0  0
   -7.2258    0.9756   16.3251 O   0  0  0  0  0  0  0  0  0  0  0  0
   -5.2548   -0.3851   16.4982 O   0  0  0  0  0  0  0  0  0  0  0  0
   -5.8214    3.7551   15.4033 S   0  0  0  0  0  0  0  0  0  0  0  0
  1  2  1  0
  2  3  2  0
  2  4  1  0
  4  5  1  0
  5  6  2  0
  6  7  1  0
  7  8  2  0
  8  9  1  0
  9 10  1  0
  9 11  2  0
  9 12  2  0
  8 13  1  0
 13  5  1  0
M  END
>  <shape_align_shape_tanimoto>  (1) 
0.86139919648802199

>  <shape_align_color_tanimoto>  (1) 
0.1666940213460025

>  <metric>  (1) 
shape

>  <metric_score>  (1) 
0.861

>  <template_pid>  (1) 
3ML5

>  <template_shape_score>  (1) 
0.861

>  <template_color_score>  (1) 
0.167

>  <template_combo_score>  (1) 
0.514

$$$$
3ML5_color_pose
     RDKit          3D

 13 13  0  0  0  0  0  0  0  0999 V2000
   -1.9472    7.5814   13.4809 C   0  0  0  0  0  0  0  0  0  0  0  0
   -2.7978    6.5871   14.2021 C   0  0  0  0  0  0  0  0  0  0  0  0
   -3.0146    6.8096   15.4400 O   0  0  0  0  0  0  0  0  0  0  0  0
   -3.3359    5.4532   13.5404 N   0  0  0  0  0  0  0  0  0  0  0  0
   -4.1332    4.5662   14.3158 C   0  0  0  0  0  0  0  0  0  0  0  0
   -5.4193    4.4729   14.6047 N   0  0  0  0  0  0  0  0  0  0  0  0
   -5.8855    3.5744   15.3312 N   0  0  0  0  0  0  0  0  0  0  0  0
   -5.0160    2.6221   15.8660 C   0  0  0  0  0  0  0  0  0  0  0  0
   -5.4580    1.3237   16.8750 S   0  0  0  0  0  0  0  0  0  0  0  0
   -5.3818    1.8214   18.5277 N   0  0  0  0  0  0  0  0  0  0  0  0
   -4.6594    0.1016   16.6255 O   0  0  0  0  0  0  0  0  0  0  0  0
   -6.9060    0.9852   16.5971 O   0  0  0  0  0  0  0  0  0  0  0  0
   -3.4442    3.1176   15.2386 S   0  0  0  0  0  0  0  0  0  0  0  0
  1  2  1  0
  2  3  2  0
  2  4  1  0
  4  5  1  0
  5  6  2  0
  6  7  1  0
  7  8  2  0
  8  9  1  0
  9 10  1  0
  9 11  2  0
  9 12  2  0
  8 13  1  0
 13  5  1  0
M  END
>  <shape_align_shape_tanimoto>  (2) 
0.76112714562983663

>  <shape_align_color_tanimoto>  (2) 
0.21753529789508741

>  <metric>  (2) 
color

>  <metric_score>  (2) 
0.218

>  <template_pid>  (2) 
3ML5

>  <template_shape_score>  (2) 
0.761

>  <template_color_score>  (2) 
0.218

>  <template_combo_score>  (2) 
0.489

$$$$
3ML5_combo_pose
     RDKit          3D

 13 13  0  0  0  0  0  0  0  0999 V2000
   -2.6692    7.4433   13.0961 C   0  0  0  0  0  0  0  0  0  0  0  0
   -2.8309    6.1354   13.7912 C   0  0  0  0  0  0  0  0  0  0  0  0
   -1.8586    5.3818   14.0545 O   0  0  0  0  0  0  0  0  0  0  0  0
   -4.1139    5.7344   14.1631 N   0  0  0  0  0  0  0  0  0  0  0  0
   -4.2409    4.4689   14.8319 C   0  0  0  0  0  0  0  0  0  0  0  0
   -3.3382    3.5401   15.1946 N   0  0  0  0  0  0  0  0  0  0  0  0
   -3.7703    2.4988   15.7870 N   0  0  0  0  0  0  0  0  0  0  0  0
   -4.9470    2.2429   16.0703 C   0  0  0  0  0  0  0  0  0  0  0  0
   -5.7918    0.9545   16.8397 S   0  0  0  0  0  0  0  0  0  0  0  0
   -5.8892    1.2270   18.5098 N   0  0  0  0  0  0  0  0  0  0  0  0
   -7.2258    0.9756   16.3251 O   0  0  0  0  0  0  0  0  0  0  0  0
   -5.2548   -0.3851   16.4982 O   0  0  0  0  0  0  0  0  0  0  0  0
   -5.8214    3.7551   15.4033 S   0  0  0  0  0  0  0  0  0  0  0  0
  1  2  1  0
  2  3  2  0
  2  4  1  0
  4  5  1  0
  5  6  2  0
  6  7  1  0
  7  8  2  0
  8  9  1  0
  9 10  1  0
  9 11  2  0
  9 12  2  0
  8 13  1  0
 13  5  1  0
M  END
>  <shape_align_shape_tanimoto>  (3) 
0.86139919648802199

>  <shape_align_color_tanimoto>  (3) 
0.1666940213460025

>  <metric>  (3) 
combo

>  <metric_score>  (3) 
0.514

>  <template_pid>  (3) 
3ML5

>  <template_shape_score>  (3) 
0.861

>  <template_color_score>  (3) 
0.167

>  <template_combo_score>  (3) 
0.514

$$$$
