3EYD_shape_pose
     RDKit          3D

 43 45  0  0  0  0  0  0  0  0999 V2000
   -9.3338   -6.7880   15.7600 C   0  0  0  0  0  1  0  0  0  0  0  0
  -10.3885   -6.2740   14.9412 N   0  0  0  0  0  0  0  0  0  0  0  0
  -11.1737   -7.2832   14.2801 C   0  0  0  0  0  2  0  0  0  0  0  0
  -12.6148   -7.3000   14.6389 C   0  0  1  0  0  0  0  0  0  0  0  0
  -13.0793   -8.6635   14.8586 N   0  0  0  0  0  2  0  0  0  0  0  0
  -13.4613   -9.5170   13.7859 C   0  0  0  0  0  0  0  0  0  0  0  0
  -14.0420   -9.0206   12.7861 O   0  0  0  0  0  0  0  0  0  0  0  0
  -13.1571  -10.8974   13.9158 N   0  0  0  0  0  2  0  0  0  0  0  0
  -13.2296  -11.8371   12.8457 C   0  0  2  0  0  0  0  0  0  0  0  0
  -13.4235  -13.2312   13.1935 C   0  0  0  0  0  0  0  0  0  0  0  0
  -12.9176  -14.0794   12.3237 O   0  0  0  0  0  0  0  0  0  0  0  0
  -14.0363  -13.8491   14.2680 N   0  0  0  0  0  0  0  0  0  0  0  0
  -13.8962  -15.3809   14.3525 C   0  0  0  0  0  2  0  0  0  0  0  0
  -13.3490  -15.4894   15.7689 C   0  0  1  0  0  0  0  0  0  0  0  0
  -13.8854  -14.2114   16.4790 C   0  0  1  0  0  0  0  0  0  0  0  0
  -14.8132  -13.6322   15.4199 C   0  0  1  0  0  0  0  0  0  0  0  0
  -15.5064  -12.4282   15.7279 C   0  0  0  0  0  0  0  0  0  0  0  0
  -15.8008  -12.2112   16.9723 O   0  0  0  0  0  0  0  0  0  0  0  0
  -15.9447  -11.3995   14.8585 N   0  0  0  0  0  2  0  0  0  0  0  0
  -17.3481  -11.0841   14.6689 C   0  0  1  0  0  0  0  0  0  0  0  0
  -18.0105  -10.5452   15.8977 C   0  0  0  0  0  2  0  0  0  0  0  0
  -18.9265  -11.5241   16.5651 C   0  0  0  0  0  3  0  0  0  0  0  0
  -20.3442  -11.0068   16.7585 C   0  0  0  0  0  2  0  0  0  0  0  0
  -20.8017  -12.4426   16.4878 C   0  0  0  0  0  2  0  0  0  0  0  0
  -19.4984  -12.6099   15.7024 C   0  0  0  0  0  2  0  0  0  0  0  0
  -17.4324   -9.9309   13.5577 B   0  0  0  0  0  0  0  0  0  0  0  0
  -18.4493  -10.0614   12.4955 O   0  0  0  0  0  0  0  0  0  0  0  0
  -16.9339   -8.5912   13.8170 O   0  0  0  0  0  0  0  0  0  0  0  0
  -14.1934  -15.5622   16.9549 C   0  0  0  0  0  0  0  0  0  0  0  0
  -15.6222  -16.0614   16.8940 C   0  0  0  0  0  1  0  0  0  0  0  0
  -13.4906  -16.0111   18.2236 C   0  0  0  0  0  1  0  0  0  0  0  0
  -12.0660  -11.6832   11.8730 C   0  0  0  0  0  0  0  0  0  0  0  0
  -12.0917  -10.2725   11.2844 C   0  0  0  0  0  1  0  0  0  0  0  0
  -12.3491  -12.6067   10.7029 C   0  0  0  0  0  1  0  0  0  0  0  0
  -10.7421  -12.0324   12.4630 C   0  0  0  0  0  1  0  0  0  0  0  0
  -12.9507   -6.5313   15.8867 C   0  0  0  0  0  0  0  0  0  0  0  0
  -12.2172   -7.0831   17.0911 C   0  0  0  0  0  1  0  0  0  0  0  0
  -12.6694   -5.0612   15.8091 C   0  0  0  0  0  1  0  0  0  0  0  0
  -14.4279   -6.6990   16.1765 C   0  0  0  0  0  1  0  0  0  0  0  0
   -9.8455   -5.0195   13.8915 S   0  0  0  0  0  0  0  0  0  0  0  0
   -9.2519   -3.7005   14.9585 C   0  0  0  0  0  1  0  0  0  0  0  0
   -8.7352   -5.4244   12.9958 O   0  0  0  0  0  0  0  0  0  0  0  0
  -10.9753   -4.4274   13.1077 O   0  0  0  0  0  0  0  0  0  0  0  0
  1  2  1  0
  2  3  1  0
  4  3  1  1
  4  5  1  0
  5  6  1  0
  6  7  2  0
  6  8  1  0
  9  8  1  1
  9 10  1  0
 10 11  2  0
 10 12  1  0
 12 13  1  0
 14 13  1  6
 14 15  1  0
 15 16  1  0
 16 17  1  1
 17 18  2  0
 17 19  1  0
 19 20  1  0
 20 21  1  1
 21 22  1  0
 22 23  1  0
 23 24  1  0
 24 25  1  0
 20 26  1  0
 26 27  1  0
 26 28  1  0
 15 29  1  1
 29 30  1  0
 29 31  1  0
  9 32  1  0
 32 33  1  0
 32 34  1  0
 32 35  1  0
  4 36  1  0
 36 37  1  0
 36 38  1  0
 36 39  1  0
  2 40  1  0
 40 41  1  0
 40 42  2  0
 40 43  2  0
 16 12  1  0
 25 22  1  0
 29 14  1  0
M  RAD  8   1   2   3   3   5   2   8   2  13   3  19   2  21   3  22   2
M  RAD  8  23   3  24   3  25   3  30   2  31   2  33   2  34   2  35   2
M  CHG  2  27   1  28   1
M  RAD  4  37   2  38   2  39   2  41   2
M  END
>  <shape_align_shape_tanimoto>  (1) 
0.52319419637267239

>  <shape_align_color_tanimoto>  (1) 
0.026082541235920072

>  <metric>  (1) 
shape

>  <metric_score>  (1) 
0.523

>  <template_pid>  (1) 
3EYD

>  <template_shape_score>  (1) 
0.523

>  <template_color_score>  (1) 
0.026

>  <template_combo_score>  (1) 
0.275

$$$$
3EYD_color_pose
     RDKit          3D

 43 45  0  0  0  0  0  0  0  0999 V2000
  -21.5716  -10.6489   13.3091 C   0  0  0  0  0  1  0  0  0  0  0  0
  -20.2072  -11.1195   13.0666 N   0  0  0  0  0  0  0  0  0  0  0  0
  -19.7817  -12.0503   14.0645 C   0  0  0  0  0  2  0  0  0  0  0  0
  -19.0902  -11.4225   15.2544 C   0  0  1  0  0  0  0  0  0  0  0  0
  -18.7939  -10.0308   15.0951 N   0  0  0  0  0  2  0  0  0  0  0  0
  -17.5510   -9.4543   15.5341 C   0  0  0  0  0  0  0  0  0  0  0  0
  -17.2352   -9.4042   16.7486 O   0  0  0  0  0  0  0  0  0  0  0  0
  -16.6598   -8.9257   14.5315 N   0  0  0  0  0  2  0  0  0  0  0  0
  -16.8560   -9.1812   13.1417 C   0  0  2  0  0  0  0  0  0  0  0  0
  -15.6649   -9.5147   12.3621 C   0  0  0  0  0  0  0  0  0  0  0  0
  -15.8092   -9.7493   11.1132 O   0  0  0  0  0  0  0  0  0  0  0  0
  -14.3462   -9.6029   12.8717 N   0  0  0  0  0  0  0  0  0  0  0  0
  -13.2059   -9.9455   12.0115 C   0  0  0  0  0  2  0  0  0  0  0  0
  -12.2294  -10.6776   12.8821 C   0  0  1  0  0  0  0  0  0  0  0  0
  -12.5717  -10.3270   14.2662 C   0  0  1  0  0  0  0  0  0  0  0  0
  -13.8038   -9.4149   14.1765 C   0  0  1  0  0  0  0  0  0  0  0  0
  -13.2740   -8.0165   14.3766 C   0  0  0  0  0  0  0  0  0  0  0  0
  -13.3472   -7.1786   13.4368 O   0  0  0  0  0  0  0  0  0  0  0  0
  -12.7068   -7.7148   15.6483 N   0  0  0  0  0  2  0  0  0  0  0  0
  -11.3328   -7.3222   15.8627 C   0  0  1  0  0  0  0  0  0  0  0  0
  -10.4722   -7.4157   14.6477 C   0  0  0  0  0  2  0  0  0  0  0  0
   -9.8392   -6.1366   14.2055 C   0  0  0  0  0  3  0  0  0  0  0  0
   -9.0231   -6.4048   12.9381 C   0  0  0  0  0  2  0  0  0  0  0  0
  -10.3236   -6.1674   12.1578 C   0  0  0  0  0  2  0  0  0  0  0  0
  -10.7265   -5.2559   13.3255 C   0  0  0  0  0  2  0  0  0  0  0  0
  -11.1733   -5.9433   16.6094 B   0  0  0  0  0  0  0  0  0  0  0  0
  -10.3331   -4.8754   16.0352 O   0  0  0  0  0  0  0  0  0  0  0  0
  -11.3723   -5.8812   18.0559 O   0  0  0  0  0  0  0  0  0  0  0  0
  -12.6454  -11.7276   13.8260 C   0  0  0  0  0  0  0  0  0  0  0  0
  -11.5805  -12.6608   14.3263 C   0  0  0  0  0  1  0  0  0  0  0  0
  -14.0021  -12.3731   13.6457 C   0  0  0  0  0  1  0  0  0  0  0  0
  -17.7022   -8.0979   12.4585 C   0  0  0  0  0  0  0  0  0  0  0  0
  -19.0692   -8.0199   13.1075 C   0  0  0  0  0  1  0  0  0  0  0  0
  -17.8823   -8.5130   11.0292 C   0  0  0  0  0  1  0  0  0  0  0  0
  -17.0758   -6.7314   12.5945 C   0  0  0  0  0  1  0  0  0  0  0  0
  -20.0173  -11.6871   16.4497 C   0  0  0  0  0  0  0  0  0  0  0  0
  -19.4755  -11.1233   17.7280 C   0  0  0  0  0  1  0  0  0  0  0  0
  -21.3800  -11.0846   16.2017 C   0  0  0  0  0  1  0  0  0  0  0  0
  -20.2091  -13.1951   16.5099 C   0  0  0  0  0  1  0  0  0  0  0  0
  -20.2041  -11.7897   11.4778 S   0  0  0  0  0  0  0  0  0  0  0  0
  -20.6267  -10.4943   10.3319 C   0  0  0  0  0  1  0  0  0  0  0  0
  -21.2503  -12.8753   11.3225 O   0  0  0  0  0  0  0  0  0  0  0  0
  -18.8409  -12.3298   11.1798 O   0  0  0  0  0  0  0  0  0  0  0  0
  1  2  1  0
  2  3  1  0
  4  3  1  6
  4  5  1  0
  5  6  1  0
  6  7  2  0
  6  8  1  0
  9  8  1  1
  9 10  1  0
 10 11  2  0
 10 12  1  0
 12 13  1  0
 14 13  1  6
 14 15  1  0
 15 16  1  0
 16 17  1  6
 17 18  2  0
 17 19  1  0
 19 20  1  0
 20 21  1  6
 21 22  1  0
 22 23  1  0
 23 24  1  0
 24 25  1  0
 20 26  1  0
 26 27  1  0
 26 28  1  0
 15 29  1  1
 29 30  1  0
 29 31  1  0
  9 32  1  0
 32 33  1  0
 32 34  1  0
 32 35  1  0
  4 36  1  0
 36 37  1  0
 36 38  1  0
 36 39  1  0
  2 40  1  0
 40 41  1  0
 40 42  2  0
 40 43  2  0
 16 12  1  0
 25 22  1  0
 29 14  1  0
M  RAD  8   1   2   3   3   5   2   8   2  13   3  19   2  21   3  22   2
M  RAD  8  23   3  24   3  25   3  30   2  31   2  33   2  34   2  35   2
M  CHG  2  27   1  28   1
M  RAD  4  37   2  38   2  39   2  41   2
M  END
>  <shape_align_shape_tanimoto>  (2) 
0.40674125541426914

>  <shape_align_color_tanimoto>  (2) 
0.13087693606807413

>  <metric>  (2) 
color

>  <metric_score>  (2) 
0.131

>  <template_pid>  (2) 
3EYD

>  <template_shape_score>  (2) 
0.407

>  <template_color_score>  (2) 
0.131

>  <template_combo_score>  (2) 
0.269

$$$$
3EYD_combo_pose
     RDKit          3D

 43 45  0  0  0  0  0  0  0  0999 V2000
  -13.2408   -3.9696   16.2399 C   0  0  0  0  0  1  0  0  0  0  0  0
  -13.3407   -5.0256   15.2093 N   0  0  0  0  0  0  0  0  0  0  0  0
  -14.6732   -5.6166   15.3064 C   0  0  0  0  0  2  0  0  0  0  0  0
  -15.3503   -5.5429   13.9448 C   0  0  1  0  0  0  0  0  0  0  0  0
  -16.6469   -6.1606   14.0583 N   0  0  0  0  0  2  0  0  0  0  0  0
  -17.1635   -7.1851   13.2131 C   0  0  0  0  0  0  0  0  0  0  0  0
  -17.9494   -6.8933   12.2392 O   0  0  0  0  0  0  0  0  0  0  0  0
  -16.8637   -8.5703   13.3700 N   0  0  0  0  0  2  0  0  0  0  0  0
  -15.6106   -9.0500   13.9480 C   0  0  2  0  0  0  0  0  0  0  0  0
  -15.1602  -10.1610   13.0425 C   0  0  0  0  0  0  0  0  0  0  0  0
  -16.0091  -10.4670   12.1196 O   0  0  0  0  0  0  0  0  0  0  0  0
  -13.9288  -10.8338   13.1562 N   0  0  0  0  0  0  0  0  0  0  0  0
  -12.8160  -10.6788   14.0827 C   0  0  0  0  0  2  0  0  0  0  0  0
  -11.5727  -11.0056   13.2425 C   0  0  1  0  0  0  0  0  0  0  0  0
  -12.0604  -11.6260   11.9554 C   0  0  1  0  0  0  0  0  0  0  0  0
  -13.5161  -11.9246   12.2602 C   0  0  1  0  0  0  0  0  0  0  0  0
  -13.5402  -13.2203   13.0071 C   0  0  0  0  0  0  0  0  0  0  0  0
  -13.2123  -14.2721   12.3906 O   0  0  0  0  0  0  0  0  0  0  0  0
  -13.9290  -13.2367   14.3838 N   0  0  0  0  0  2  0  0  0  0  0  0
  -13.8737  -14.4470   15.1770 C   0  0  1  0  0  0  0  0  0  0  0  0
  -13.1798  -15.5935   14.4438 C   0  0  0  0  0  2  0  0  0  0  0  0
  -13.3768  -16.8634   15.2613 C   0  0  0  0  0  3  0  0  0  0  0  0
  -14.3923  -16.7364   16.3782 C   0  0  0  0  0  2  0  0  0  0  0  0
  -13.2831  -17.0331   17.3746 C   0  0  0  0  0  2  0  0  0  0  0  0
  -12.2584  -17.1355   16.2596 C   0  0  0  0  0  2  0  0  0  0  0  0
  -13.0349  -14.1495   16.4946 B   0  0  0  0  0  0  0  0  0  0  0  0
  -13.5844  -13.2190   17.5007 O   0  0  0  0  0  0  0  0  0  0  0  0
  -11.5925  -14.3851   16.4648 O   0  0  0  0  0  0  0  0  0  0  0  0
  -11.5479  -10.2296   11.9462 C   0  0  0  0  0  0  0  0  0  0  0  0
  -12.4909   -9.0480   11.7552 C   0  0  0  0  0  1  0  0  0  0  0  0
  -10.1707  -10.0252   11.3526 C   0  0  0  0  0  1  0  0  0  0  0  0
  -16.0076   -9.6808   15.2954 C   0  0  0  0  0  0  0  0  0  0  0  0
  -16.9859  -10.8342   15.1126 C   0  0  0  0  0  1  0  0  0  0  0  0
  -16.7176   -8.6362   16.1671 C   0  0  0  0  0  1  0  0  0  0  0  0
  -14.8197  -10.1913   16.0769 C   0  0  0  0  0  1  0  0  0  0  0  0
  -15.3872   -4.0779   13.5558 C   0  0  0  0  0  0  0  0  0  0  0  0
  -16.0429   -3.8477   12.2029 C   0  0  0  0  0  1  0  0  0  0  0  0
  -15.9845   -3.2048   14.6482 C   0  0  0  0  0  1  0  0  0  0  0  0
  -13.9124   -3.6467   13.4299 C   0  0  0  0  0  1  0  0  0  0  0  0
  -12.2351   -6.3089   15.6665 S   0  0  0  0  0  0  0  0  0  0  0  0
  -12.7942   -6.9192   17.2462 C   0  0  0  0  0  1  0  0  0  0  0  0
  -10.8229   -5.7741   15.7422 O   0  0  0  0  0  0  0  0  0  0  0  0
  -12.2880   -7.3813   14.6038 O   0  0  0  0  0  0  0  0  0  0  0  0
  1  2  1  0
  2  3  1  0
  4  3  1  1
  4  5  1  0
  5  6  1  0
  6  7  2  0
  6  8  1  0
  9  8  1  6
  9 10  1  0
 10 11  2  0
 10 12  1  0
 12 13  1  0
 14 13  1  1
 14 15  1  0
 15 16  1  0
 16 17  1  1
 17 18  2  0
 17 19  1  0
 19 20  1  0
 20 21  1  6
 21 22  1  0
 22 23  1  0
 23 24  1  0
 24 25  1  0
 20 26  1  0
 26 27  1  0
 26 28  1  0
 15 29  1  6
 29 30  1  0
 29 31  1  0
  9 32  1  0
 32 33  1  0
 32 34  1  0
 32 35  1  0
  4 36  1  0
 36 37  1  0
 36 38  1  0
 36 39  1  0
  2 40  1  0
 40 41  1  0
 40 42  2  0
 40 43  2  0
 16 12  1  0
 25 22  1  0
 29 14  1  0
M  RAD  8   1   2   3   3   5   2   8   2  13   3  19   2  21   3  22   2
M  RAD  8  23   3  24   3  25   3  30   2  31   2  33   2  34   2  35   2
M  CHG  2  27   1  28   1
M  RAD  4  37   2  38   2  39   2  41   2
M  END
>  <shape_align_shape_tanimoto>  (3) 
0.50443309843979811

>  <shape_align_color_tanimoto>  (3) 
0.075258769438879616

>  <metric>  (3) 
combo

>  <metric_score>  (3) 
0.290

>  <template_pid>  (3) 
3EYD

>  <template_shape_score>  (3) 
0.504

>  <template_color_score>  (3) 
0.075

>  <template_combo_score>  (3) 
0.290

$$$$
