4IE0_shape_pose
     RDKit          3D

 12 12  0  0  0  0  0  0  0  0999 V2000
    8.6536   24.8751  120.8715 O   0  0  0  0  0  0  0  0  0  0  0  0
    8.3989   24.4726  122.0306 C   0  0  0  0  0  0  0  0  0  0  0  0
    8.5826   25.3238  123.1193 O   0  0  0  0  0  0  0  0  0  0  0  0
    7.9136   23.1285  122.2558 C   0  0  0  0  0  0  0  0  0  0  0  0
    7.6309   22.6775  123.5266 C   0  0  0  0  0  0  0  0  0  0  0  0
    7.1698   21.3936  123.7175 C   0  0  0  0  0  0  0  0  0  0  0  0
    6.9914   20.5644  122.6510 N   0  0  0  0  0  0  0  0  0  0  0  0
    7.2595   20.9785  121.4001 C   0  0  0  0  0  0  0  0  0  0  0  0
    7.0430   20.0327  120.3131 C   0  0  0  0  0  0  0  0  0  0  0  0
    6.6174   18.8851  120.6185 O   0  0  0  0  0  0  0  0  0  0  0  0
    7.2789   20.3317  118.9879 O   0  0  0  0  0  0  0  0  0  0  0  0
    7.7183   22.2562  121.2105 C   0  0  0  0  0  0  0  0  0  0  0  0
  1  2  2  0
  2  3  1  0
  2  4  1  0
  4  5  2  0
  5  6  1  0
  6  7  2  0
  7  8  1  0
  8  9  1  0
  9 10  2  0
  9 11  1  0
  8 12  2  0
 12  4  1  0
M  CHG  2   3  -1  11  -1
M  END
>  <shape_align_shape_tanimoto>  (1) 
0.83555458284877127

>  <shape_align_color_tanimoto>  (1) 
0.27566363565609908

>  <metric>  (1) 
shape

>  <metric_score>  (1) 
0.836

>  <template_pid>  (1) 
4IE0

>  <template_shape_score>  (1) 
0.836

>  <template_color_score>  (1) 
0.276

>  <template_combo_score>  (1) 
0.556

$$$$
4IE0_color_pose
     RDKit          3D

 12 12  0  0  0  0  0  0  0  0999 V2000
    8.5604   25.2301  123.0334 O   0  0  0  0  0  0  0  0  0  0  0  0
    8.3934   24.4593  122.0374 C   0  0  0  0  0  0  0  0  0  0  0  0
    8.6927   24.9715  120.7923 O   0  0  0  0  0  0  0  0  0  0  0  0
    7.9115   23.1167  122.2387 C   0  0  0  0  0  0  0  0  0  0  0  0
    7.6280   22.6541  123.4970 C   0  0  0  0  0  0  0  0  0  0  0  0
    7.1646   21.3721  123.7216 C   0  0  0  0  0  0  0  0  0  0  0  0
    6.9852   20.5484  122.6673 N   0  0  0  0  0  0  0  0  0  0  0  0
    7.2502   20.9610  121.4214 C   0  0  0  0  0  0  0  0  0  0  0  0
    7.0390   20.0338  120.3283 C   0  0  0  0  0  0  0  0  0  0  0  0
    6.6207   18.8820  120.5488 O   0  0  0  0  0  0  0  0  0  0  0  0
    7.3092   20.4405  119.0097 O   0  0  0  0  0  0  0  0  0  0  0  0
    7.7140   22.2405  121.1850 C   0  0  0  0  0  0  0  0  0  0  0  0
  1  2  2  0
  2  3  1  0
  2  4  1  0
  4  5  2  0
  5  6  1  0
  6  7  2  0
  7  8  1  0
  8  9  1  0
  9 10  2  0
  9 11  1  0
  8 12  2  0
 12  4  1  0
M  CHG  2   3  -1  11  -1
M  END
>  <shape_align_shape_tanimoto>  (2) 
0.83212182116149847

>  <shape_align_color_tanimoto>  (2) 
0.28110538046419065

>  <metric>  (2) 
color

>  <metric_score>  (2) 
0.281

>  <template_pid>  (2) 
4IE0

>  <template_shape_score>  (2) 
0.832

>  <template_color_score>  (2) 
0.281

>  <template_combo_score>  (2) 
0.557

$$$$
4IE0_combo_pose
     RDKit          3D

 12 12  0  0  0  0  0  0  0  0999 V2000
    8.5604   25.2301  123.0334 O   0  0  0  0  0  0  0  0  0  0  0  0
    8.3934   24.4593  122.0374 C   0  0  0  0  0  0  0  0  0  0  0  0
    8.6927   24.9715  120.7923 O   0  0  0  0  0  0  0  0  0  0  0  0
    7.9115   23.1167  122.2387 C   0  0  0  0  0  0  0  0  0  0  0  0
    7.6280   22.6541  123.4970 C   0  0  0  0  0  0  0  0  0  0  0  0
    7.1646   21.3721  123.7216 C   0  0  0  0  0  0  0  0  0  0  0  0
    6.9852   20.5484  122.6673 N   0  0  0  0  0  0  0  0  0  0  0  0
    7.2502   20.9610  121.4214 C   0  0  0  0  0  0  0  0  0  0  0  0
    7.0390   20.0338  120.3283 C   0  0  0  0  0  0  0  0  0  0  0  0
    6.6207   18.8820  120.5488 O   0  0  0  0  0  0  0  0  0  0  0  0
    7.3092   20.4405  119.0097 O   0  0  0  0  0  0  0  0  0  0  0  0
    7.7140   22.2405  121.1850 C   0  0  0  0  0  0  0  0  0  0  0  0
  1  2  2  0
  2  3  1  0
  2  4  1  0
  4  5  2  0
  5  6  1  0
  6  7  2  0
  7  8  1  0
  8  9  1  0
  9 10  2  0
  9 11  1  0
  8 12  2  0
 12  4  1  0
M  CHG  2   3  -1  11  -1
M  END
>  <shape_align_shape_tanimoto>  (3) 
0.83212182116149847

>  <shape_align_color_tanimoto>  (3) 
0.28110538046419065

>  <metric>  (3) 
combo

>  <metric_score>  (3) 
0.557

>  <template_pid>  (3) 
4IE0

>  <template_shape_score>  (3) 
0.832

>  <template_color_score>  (3) 
0.281

>  <template_combo_score>  (3) 
0.557

$$$$
