4K63_shape_pose
     RDKit          3D

 46 48  0  0  0  0  0  0  0  0999 V2000
    4.8950   -7.5379   18.5097 C   0  0  0  0  0  0  0  0  0  0  0  0
    5.5055   -8.5802   19.3984 C   0  0  0  0  0  0  0  0  0  0  0  0
    5.8130   -9.7180   19.0246 O   0  0  0  0  0  0  0  0  0  0  0  0
    5.7332   -8.1925   20.7691 N   0  0  0  0  0  0  0  0  0  0  0  0
    6.3203   -9.1211   21.7222 C   0  0  2  0  0  0  0  0  0  0  0  0
    5.4265   -9.4109   22.8937 C   0  0  1  0  0  0  0  0  0  0  0  0
    5.5656  -10.7080   23.3803 O   0  0  0  0  0  0  0  0  0  0  0  0
    5.6077   -8.4374   24.0354 C   0  0  2  0  0  0  0  0  0  0  0  0
    4.7707   -7.3380   23.8480 O   0  0  0  0  0  0  0  0  0  0  0  0
    3.8297   -7.1377   24.8212 C   0  0  2  0  0  0  0  0  0  0  0  0
    2.5224   -7.3167   24.3543 O   0  0  0  0  0  0  0  0  0  0  0  0
    1.6585   -6.9252   25.3722 C   0  0  2  0  0  0  0  0  0  0  0  0
    0.2345   -7.4389   25.1130 C   0  0  0  0  0  0  0  0  0  0  0  0
   -0.5232   -6.9815   26.1978 O   0  0  0  0  0  0  0  0  0  0  0  0
    1.5692   -5.4131   25.2984 C   0  0  2  0  0  0  0  0  0  0  0  0
    0.6229   -5.1268   24.3442 O   0  0  0  0  0  0  0  0  0  0  0  0
    2.9214   -4.8098   24.9960 C   0  0  2  0  0  0  0  0  0  0  0  0
    3.1227   -4.4835   23.7057 O   0  0  0  0  0  0  0  0  0  0  0  0
    3.3781   -3.1581   23.3830 C   0  0  2  0  0  0  0  0  0  0  0  0
    3.6439   -3.2245   21.9185 C   0  0  0  0  0  0  0  0  0  0  0  0
    3.6080   -4.3900   21.4053 O   0  0  0  0  0  0  0  0  0  0  0  0
    3.9130   -2.1788   21.1091 O   0  0  0  0  0  0  0  0  0  0  0  0
    4.7058   -2.7860   23.9948 C   0  0  0  0  0  0  0  0  0  0  0  0
    5.0159   -1.3726   23.6335 C   0  0  2  0  0  0  0  0  0  0  0  0
    6.1139   -1.0019   24.4589 O   0  0  0  0  0  0  0  0  0  0  0  0
    3.8894   -0.4087   23.7563 C   0  0  1  0  0  0  0  0  0  0  0  0
    3.9864    0.7001   22.7890 N   0  0  0  0  0  0  0  0  0  0  0  0
    4.2334    2.0352   23.1916 C   0  0  0  0  0  0  0  0  0  0  0  0
    4.3106    3.0824   22.1365 C   0  0  0  0  0  0  0  0  0  0  0  0
    4.3910    2.4052   24.3758 O   0  0  0  0  0  0  0  0  0  0  0  0
    2.5161   -1.0020   23.7785 C   0  0  2  0  0  0  0  0  0  0  0  0
    1.7156   -0.2824   24.8450 C   0  0  2  0  0  0  0  0  0  0  0  0
    2.0208   -0.6971   26.1371 O   0  0  0  0  0  0  0  0  0  0  0  0
    0.2535   -0.2330   24.5836 C   0  0  2  0  0  0  0  0  0  0  0  0
   -0.4034    0.6518   25.4423 O   0  0  0  0  0  0  0  0  0  0  0  0
   -0.3381   -1.6049   24.9456 C   0  0  0  0  0  0  0  0  0  0  0  0
   -0.1072   -1.9196   26.2599 O   0  0  0  0  0  0  0  0  0  0  0  0
    2.3767   -2.3319   23.7469 O   0  0  0  0  0  0  0  0  0  0  0  0
    4.0114   -5.7798   25.4483 C   0  0  1  0  0  0  0  0  0  0  0  0
    3.9742   -5.8460   26.8394 O   0  0  0  0  0  0  0  0  0  0  0  0
    7.0129   -7.9531   24.1777 C   0  0  1  0  0  0  0  0  0  0  0  0
    7.4858   -8.0176   25.6373 C   0  0  0  0  0  0  0  0  0  0  0  0
    6.7127   -7.2346   26.4802 O   0  0  0  0  0  0  0  0  0  0  0  0
    7.9016   -8.7855   23.4683 O   0  0  0  0  0  0  0  0  0  0  0  0
    7.6648   -8.5715   22.1309 C   0  0  1  0  0  0  0  0  0  0  0  0
    8.6687   -9.1962   21.3943 O   0  0  0  0  0  0  0  0  0  0  0  0
  1  2  1  0
  2  3  2  0
  2  4  1  0
  5  4  1  6
  5  6  1  0
  6  7  1  1
  6  8  1  0
  8  9  1  6
 10  9  1  6
 10 11  1  0
 11 12  1  0
 12 13  1  6
 13 14  1  0
 12 15  1  0
 15 16  1  6
 15 17  1  0
 17 18  1  6
 19 18  1  1
 19 20  1  0
 20 21  2  0
 20 22  1  0
 19 23  1  0
 23 24  1  0
 24 25  1  1
 24 26  1  0
 26 27  1  6
 27 28  1  0
 28 29  1  0
 28 30  2  0
 26 31  1  0
 31 32  1  0
 32 33  1  1
 32 34  1  0
 34 35  1  1
 34 36  1  0
 36 37  1  0
 31 38  1  1
 17 39  1  0
 39 40  1  1
  8 41  1  0
 41 42  1  1
 42 43  1  0
 41 44  1  0
 44 45  1  0
 45 46  1  6
 45  5  1  0
 39 10  1  0
 38 19  1  0
M  CHG  1  22  -1
M  END
>  <shape_align_shape_tanimoto>  (1) 
0.3635500037296861

>  <shape_align_color_tanimoto>  (1) 
0.02836025124923108

>  <metric>  (1) 
shape

>  <metric_score>  (1) 
0.364

>  <template_pid>  (1) 
4K63

>  <template_shape_score>  (1) 
0.364

>  <template_color_score>  (1) 
0.028

>  <template_combo_score>  (1) 
0.196

$$$$
4K63_color_pose
     RDKit          3D

 46 48  0  0  0  0  0  0  0  0999 V2000
    5.7860    1.3516   22.5475 C   0  0  0  0  0  0  0  0  0  0  0  0
    4.4164    1.0550   23.0991 C   0  0  0  0  0  0  0  0  0  0  0  0
    3.7482    1.9727   23.6433 O   0  0  0  0  0  0  0  0  0  0  0  0
    3.9125   -0.2885   22.9827 N   0  0  0  0  0  0  0  0  0  0  0  0
    2.5878   -0.5810   23.5150 C   0  0  2  0  0  0  0  0  0  0  0  0
    2.6097   -1.5332   24.6690 C   0  0  1  0  0  0  0  0  0  0  0  0
    2.6574   -0.8602   25.9010 O   0  0  0  0  0  0  0  0  0  0  0  0
    1.5508   -2.5736   24.6756 C   0  0  2  0  0  0  0  0  0  0  0  0
    2.1162   -3.8432   24.4953 O   0  0  0  0  0  0  0  0  0  0  0  0
    1.9009   -4.6149   25.6068 C   0  0  2  0  0  0  0  0  0  0  0  0
    3.1446   -4.9296   26.1766 O   0  0  0  0  0  0  0  0  0  0  0  0
    3.0422   -5.9721   27.0973 C   0  0  2  0  0  0  0  0  0  0  0  0
    4.4297   -6.0629   27.7483 C   0  0  0  0  0  0  0  0  0  0  0  0
    4.4965   -7.0635   28.7000 O   0  0  0  0  0  0  0  0  0  0  0  0
    2.7061   -7.3027   26.4466 C   0  0  2  0  0  0  0  0  0  0  0  0
    3.7766   -8.1658   26.4876 O   0  0  0  0  0  0  0  0  0  0  0  0
    2.2933   -6.9462   24.9951 C   0  0  2  0  0  0  0  0  0  0  0  0
    3.3846   -6.3710   24.4441 O   0  0  0  0  0  0  0  0  0  0  0  0
    3.8861   -6.8600   23.2526 C   0  0  2  0  0  0  0  0  0  0  0  0
    2.9766   -6.5357   22.0884 C   0  0  0  0  0  0  0  0  0  0  0  0
    1.9235   -5.8875   22.1916 O   0  0  0  0  0  0  0  0  0  0  0  0
    3.4213   -7.0335   20.8530 O   0  0  0  0  0  0  0  0  0  0  0  0
    4.1422   -8.3130   23.1810 C   0  0  0  0  0  0  0  0  0  0  0  0
    5.4959   -8.8204   23.4984 C   0  0  2  0  0  0  0  0  0  0  0  0
    5.5983   -9.6923   24.5532 O   0  0  0  0  0  0  0  0  0  0  0  0
    6.5499   -7.6846   23.5795 C   0  0  1  0  0  0  0  0  0  0  0  0
    7.8663   -8.2497   23.3637 N   0  0  0  0  0  0  0  0  0  0  0  0
    8.8317   -8.4458   24.3720 C   0  0  0  0  0  0  0  0  0  0  0  0
   10.1687   -9.0416   24.0135 C   0  0  0  0  0  0  0  0  0  0  0  0
    8.6768   -8.1604   25.5845 O   0  0  0  0  0  0  0  0  0  0  0  0
    6.1040   -6.7097   22.5556 C   0  0  2  0  0  0  0  0  0  0  0  0
    7.1047   -5.8113   21.9441 C   0  0  2  0  0  0  0  0  0  0  0  0
    8.2623   -6.4094   21.5193 O   0  0  0  0  0  0  0  0  0  0  0  0
    7.3967   -4.5136   22.6136 C   0  0  2  0  0  0  0  0  0  0  0  0
    8.0162   -3.7185   21.5900 O   0  0  0  0  0  0  0  0  0  0  0  0
    8.4392   -4.5628   23.6986 C   0  0  0  0  0  0  0  0  0  0  0  0
    8.0832   -5.2462   24.8321 O   0  0  0  0  0  0  0  0  0  0  0  0
    5.0004   -6.0376   23.0006 O   0  0  0  0  0  0  0  0  0  0  0  0
    1.1969   -5.8864   25.2342 C   0  0  1  0  0  0  0  0  0  0  0  0
    0.4500   -6.2691   26.3683 O   0  0  0  0  0  0  0  0  0  0  0  0
    0.4209   -2.3689   23.7176 C   0  0  1  0  0  0  0  0  0  0  0  0
   -0.9285   -2.6624   24.3639 C   0  0  0  0  0  0  0  0  0  0  0  0
   -1.1497   -1.6538   25.2914 O   0  0  0  0  0  0  0  0  0  0  0  0
    0.3741   -1.1422   23.1069 O   0  0  0  0  0  0  0  0  0  0  0  0
    1.6164   -0.9761   22.4523 C   0  0  1  0  0  0  0  0  0  0  0  0
    1.4985    0.0037   21.4877 O   0  0  0  0  0  0  0  0  0  0  0  0
  1  2  1  0
  2  3  2  0
  2  4  1  0
  5  4  1  6
  5  6  1  0
  6  7  1  1
  6  8  1  0
  8  9  1  6
 10  9  1  6
 10 11  1  0
 11 12  1  0
 12 13  1  6
 13 14  1  0
 12 15  1  0
 15 16  1  6
 15 17  1  0
 17 18  1  6
 19 18  1  1
 19 20  1  0
 20 21  2  0
 20 22  1  0
 19 23  1  0
 23 24  1  0
 24 25  1  1
 24 26  1  0
 26 27  1  6
 27 28  1  0
 28 29  1  0
 28 30  2  0
 26 31  1  0
 31 32  1  0
 32 33  1  1
 32 34  1  0
 34 35  1  6
 34 36  1  0
 36 37  1  0
 31 38  1  1
 17 39  1  0
 39 40  1  1
  8 41  1  0
 41 42  1  1
 42 43  1  0
 41 44  1  0
 44 45  1  0
 45 46  1  6
 45  5  1  0
 39 10  1  0
 38 19  1  0
M  CHG  1  22  -1
M  END
>  <shape_align_shape_tanimoto>  (2) 
0.28555418645031067

>  <shape_align_color_tanimoto>  (2) 
0.095850573290842775

>  <metric>  (2) 
color

>  <metric_score>  (2) 
0.096

>  <template_pid>  (2) 
4K63

>  <template_shape_score>  (2) 
0.286

>  <template_color_score>  (2) 
0.096

>  <template_combo_score>  (2) 
0.191

$$$$
4K63_combo_pose
     RDKit          3D

 46 48  0  0  0  0  0  0  0  0999 V2000
    6.7243   -6.7142   20.5580 C   0  0  0  0  0  0  0  0  0  0  0  0
    5.8563   -7.6248   21.3845 C   0  0  0  0  0  0  0  0  0  0  0  0
    5.4698   -8.7233   20.9098 O   0  0  0  0  0  0  0  0  0  0  0  0
    5.4917   -7.2017   22.7138 N   0  0  0  0  0  0  0  0  0  0  0  0
    4.6595   -8.0878   23.5003 C   0  0  2  0  0  0  0  0  0  0  0  0
    3.3273   -7.5301   23.8654 C   0  0  1  0  0  0  0  0  0  0  0  0
    2.3688   -8.5407   24.0209 O   0  0  0  0  0  0  0  0  0  0  0  0
    3.3394   -6.5748   25.0414 C   0  0  2  0  0  0  0  0  0  0  0  0
    3.0350   -5.3410   24.6094 O   0  0  0  0  0  0  0  0  0  0  0  0
    1.8755   -4.7728   24.9777 C   0  0  2  0  0  0  0  0  0  0  0  0
    0.9770   -4.4355   23.9656 O   0  0  0  0  0  0  0  0  0  0  0  0
   -0.2669   -4.1290   24.4214 C   0  0  2  0  0  0  0  0  0  0  0  0
   -1.1783   -3.7753   23.2680 C   0  0  0  0  0  0  0  0  0  0  0  0
   -2.4421   -3.4899   23.7902 O   0  0  0  0  0  0  0  0  0  0  0  0
   -0.2109   -3.0246   25.4475 C   0  0  2  0  0  0  0  0  0  0  0  0
   -1.2268   -2.1548   25.1499 O   0  0  0  0  0  0  0  0  0  0  0  0
    1.1901   -2.4134   25.3674 C   0  0  2  0  0  0  0  0  0  0  0  0
    1.5270   -1.9831   24.1570 O   0  0  0  0  0  0  0  0  0  0  0  0
    2.1233   -0.8239   23.8535 C   0  0  2  0  0  0  0  0  0  0  0  0
    1.4720    0.3847   24.5195 C   0  0  0  0  0  0  0  0  0  0  0  0
    1.8623    1.5570   24.2485 O   0  0  0  0  0  0  0  0  0  0  0  0
    0.4533    0.2763   25.4291 O   0  0  0  0  0  0  0  0  0  0  0  0
    2.0829   -0.4801   22.4026 C   0  0  0  0  0  0  0  0  0  0  0  0
    3.1419    0.5001   21.9846 C   0  0  2  0  0  0  0  0  0  0  0  0
    3.2675    0.4530   20.5720 O   0  0  0  0  0  0  0  0  0  0  0  0
    4.4644    0.2774   22.5915 C   0  0  1  0  0  0  0  0  0  0  0  0
    4.9072    1.5009   23.2679 N   0  0  0  0  0  0  0  0  0  0  0  0
    5.9927    2.2119   22.6816 C   0  0  0  0  0  0  0  0  0  0  0  0
    6.5093    3.4715   23.3040 C   0  0  0  0  0  0  0  0  0  0  0  0
    6.5629    1.8341   21.6378 O   0  0  0  0  0  0  0  0  0  0  0  0
    4.4555   -0.8273   23.5722 C   0  0  2  0  0  0  0  0  0  0  0  0
    4.8479   -2.1789   23.0560 C   0  0  2  0  0  0  0  0  0  0  0  0
    5.2606   -2.9553   24.1439 O   0  0  0  0  0  0  0  0  0  0  0  0
    5.9895   -2.1166   22.1088 C   0  0  2  0  0  0  0  0  0  0  0  0
    6.2858   -3.4690   21.7659 O   0  0  0  0  0  0  0  0  0  0  0  0
    7.2544   -1.5387   22.6526 C   0  0  0  0  0  0  0  0  0  0  0  0
    8.2047   -1.6329   21.6121 O   0  0  0  0  0  0  0  0  0  0  0  0
    3.3928   -0.7694   24.4198 O   0  0  0  0  0  0  0  0  0  0  0  0
    2.1566   -3.5473   25.8310 C   0  0  1  0  0  0  0  0  0  0  0  0
    1.9488   -3.8083   27.1760 O   0  0  0  0  0  0  0  0  0  0  0  0
    4.6166   -6.8053   25.7774 C   0  0  1  0  0  0  0  0  0  0  0  0
    4.4706   -6.3903   27.2216 C   0  0  0  0  0  0  0  0  0  0  0  0
    5.6624   -6.6551   27.9138 O   0  0  0  0  0  0  0  0  0  0  0  0
    4.9058   -8.1958   25.8356 O   0  0  0  0  0  0  0  0  0  0  0  0
    5.4855   -8.6054   24.6483 C   0  0  1  0  0  0  0  0  0  0  0  0
    5.5382   -9.9980   24.6606 O   0  0  0  0  0  0  0  0  0  0  0  0
  1  2  1  0
  2  3  2  0
  2  4  1  0
  5  4  1  1
  5  6  1  0
  6  7  1  1
  6  8  1  0
  8  9  1  6
 10  9  1  6
 10 11  1  0
 11 12  1  0
 12 13  1  6
 13 14  1  0
 12 15  1  0
 15 16  1  6
 15 17  1  0
 17 18  1  6
 19 18  1  6
 19 20  1  0
 20 21  2  0
 20 22  1  0
 19 23  1  0
 23 24  1  0
 24 25  1  6
 24 26  1  0
 26 27  1  1
 27 28  1  0
 28 29  1  0
 28 30  2  0
 26 31  1  0
 31 32  1  0
 32 33  1  1
 32 34  1  0
 34 35  1  1
 34 36  1  0
 36 37  1  0
 31 38  1  6
 17 39  1  0
 39 40  1  1
  8 41  1  0
 41 42  1  1
 42 43  1  0
 41 44  1  0
 44 45  1  0
 45 46  1  1
 45  5  1  0
 39 10  1  0
 38 19  1  0
M  CHG  1  22  -1
M  END
>  <shape_align_shape_tanimoto>  (3) 
0.34499157966367272

>  <shape_align_color_tanimoto>  (3) 
0.094631507200608853

>  <metric>  (3) 
combo

>  <metric_score>  (3) 
0.220

>  <template_pid>  (3) 
4K63

>  <template_shape_score>  (3) 
0.345

>  <template_color_score>  (3) 
0.095

>  <template_combo_score>  (3) 
0.220

$$$$
