3N9R_shape_pose
     RDKit          3D

 15 14  0  0  0  0  0  0  0  0999 V2000
    6.1418    5.5824   92.7107 O   0  0  0  0  0  0  0  0  0  0  0  0
    7.3132    5.4564   92.2154 C   0  0  0  0  0  0  0  0  0  0  0  0
    8.4228    6.3384   92.6346 C   0  0  0  0  0  0  0  0  0  0  0  0
    7.9586    7.2673   93.5965 O   0  0  0  0  0  0  0  0  0  0  0  0
    9.1807    8.2910   94.1040 P   0  0  0  0  0  0  0  0  0  0  0  0
    9.3209    9.4279   93.1082 O   0  0  0  0  0  0  0  0  0  0  0  0
   10.6580    7.4924   94.3262 O   0  0  0  0  0  0  0  0  0  0  0  0
    8.6673    8.9932   95.5704 O   0  0  0  0  0  0  0  0  0  0  0  0
    7.4602    4.4159   91.2432 N   0  0  0  0  0  0  0  0  0  0  0  0
    6.3178    3.7094   90.9847 O   0  0  0  0  0  0  0  0  0  0  0  0
    8.7091    4.1918   90.5815 C   0  0  0  0  0  0  0  0  0  0  0  0
    9.7027    3.2947   91.1671 C   0  0  0  0  0  0  0  0  0  0  0  0
    9.4356    1.8724   91.4166 C   0  0  0  0  0  0  0  0  0  0  0  0
    8.3704    1.4758   92.3579 C   0  0  0  0  0  0  0  0  0  0  0  0
    8.6053    2.0069   93.6448 O   0  0  0  0  0  0  0  0  0  0  0  0
  1  2  2  0
  2  3  1  0
  3  4  1  0
  4  5  1  0
  5  6  2  0
  5  7  1  0
  5  8  1  0
  2  9  1  0
  9 10  1  0
  9 11  1  0
 11 12  1  0
 12 13  1  0
 13 14  1  0
 14 15  1  0
M  END
>  <shape_align_shape_tanimoto>  (1) 
0.69567632511567234

>  <shape_align_color_tanimoto>  (1) 
0.0816736730950023

>  <metric>  (1) 
shape

>  <metric_score>  (1) 
0.696

>  <template_pid>  (1) 
3N9R

>  <template_shape_score>  (1) 
0.696

>  <template_color_score>  (1) 
0.082

>  <template_combo_score>  (1) 
0.389

$$$$
3N9R_color_pose
     RDKit          3D

 15 14  0  0  0  0  0  0  0  0999 V2000
    5.5829    5.4875   91.8246 O   0  0  0  0  0  0  0  0  0  0  0  0
    6.8649    5.3152   91.8740 C   0  0  0  0  0  0  0  0  0  0  0  0
    7.5710    6.1602   92.8364 C   0  0  0  0  0  0  0  0  0  0  0  0
    8.9305    6.0015   92.7910 O   0  0  0  0  0  0  0  0  0  0  0  0
    9.7527    6.9671   93.8866 P   0  0  0  0  0  0  0  0  0  0  0  0
    8.9595    8.1916   94.2891 O   0  0  0  0  0  0  0  0  0  0  0  0
   11.1680    7.4873   93.0915 O   0  0  0  0  0  0  0  0  0  0  0  0
   10.2704    6.1045   95.2530 O   0  0  0  0  0  0  0  0  0  0  0  0
    7.3758    4.3570   91.0058 N   0  0  0  0  0  0  0  0  0  0  0  0
    6.4495    3.7534   90.1643 O   0  0  0  0  0  0  0  0  0  0  0  0
    8.7163    3.8764   90.8849 C   0  0  0  0  0  0  0  0  0  0  0  0
    9.0267    2.6695   91.7238 C   0  0  0  0  0  0  0  0  0  0  0  0
    8.8595    2.8274   93.1936 C   0  0  0  0  0  0  0  0  0  0  0  0
    9.2230    1.4647   93.8079 C   0  0  0  0  0  0  0  0  0  0  0  0
    9.0700    1.5996   95.1906 O   0  0  0  0  0  0  0  0  0  0  0  0
  1  2  2  0
  2  3  1  0
  3  4  1  0
  4  5  1  0
  5  6  2  0
  5  7  1  0
  5  8  1  0
  2  9  1  0
  9 10  1  0
  9 11  1  0
 11 12  1  0
 12 13  1  0
 13 14  1  0
 14 15  1  0
M  END
>  <shape_align_shape_tanimoto>  (2) 
0.62713580899395649

>  <shape_align_color_tanimoto>  (2) 
0.13783085298477635

>  <metric>  (2) 
color

>  <metric_score>  (2) 
0.138

>  <template_pid>  (2) 
3N9R

>  <template_shape_score>  (2) 
0.627

>  <template_color_score>  (2) 
0.138

>  <template_combo_score>  (2) 
0.382

$$$$
3N9R_combo_pose
     RDKit          3D

 15 14  0  0  0  0  0  0  0  0999 V2000
    6.2358    5.6951   92.4497 O   0  0  0  0  0  0  0  0  0  0  0  0
    7.4338    5.4156   92.1868 C   0  0  0  0  0  0  0  0  0  0  0  0
    8.4986    6.2845   92.7016 C   0  0  0  0  0  0  0  0  0  0  0  0
    7.8376    7.3042   93.4255 O   0  0  0  0  0  0  0  0  0  0  0  0
    9.0490    8.3179   94.0279 P   0  0  0  0  0  0  0  0  0  0  0  0
    9.2365    9.4225   93.0255 O   0  0  0  0  0  0  0  0  0  0  0  0
   10.4984    7.4651   94.1927 O   0  0  0  0  0  0  0  0  0  0  0  0
    8.6396    8.9687   95.5238 O   0  0  0  0  0  0  0  0  0  0  0  0
    7.6620    4.2510   91.3922 N   0  0  0  0  0  0  0  0  0  0  0  0
    6.5371    3.5741   91.0090 O   0  0  0  0  0  0  0  0  0  0  0  0
    8.9929    3.8190   91.0156 C   0  0  0  0  0  0  0  0  0  0  0  0
    9.4924    2.8835   92.0944 C   0  0  0  0  0  0  0  0  0  0  0  0
    8.5525    1.7140   92.1773 C   0  0  0  0  0  0  0  0  0  0  0  0
    8.9837    0.7197   93.2377 C   0  0  0  0  0  0  0  0  0  0  0  0
    9.0262    1.2955   94.4915 O   0  0  0  0  0  0  0  0  0  0  0  0
  1  2  2  0
  2  3  1  0
  3  4  1  0
  4  5  1  0
  5  6  2  0
  5  7  1  0
  5  8  1  0
  2  9  1  0
  9 10  1  0
  9 11  1  0
 11 12  1  0
 12 13  1  0
 13 14  1  0
 14 15  1  0
M  END
>  <shape_align_shape_tanimoto>  (3) 
0.69458796469211093

>  <shape_align_color_tanimoto>  (3) 
0.129794893309712

>  <metric>  (3) 
combo

>  <metric_score>  (3) 
0.412

>  <template_pid>  (3) 
3N9R

>  <template_shape_score>  (3) 
0.695

>  <template_color_score>  (3) 
0.130

>  <template_combo_score>  (3) 
0.412

$$$$
