5A3W_shape_pose
     RDKit          3D

 12 12  0  0  0  0  0  0  0  0999 V2000
  -17.9773   -6.0480   61.8590 O   0  0  0  0  0  0  0  0  0  0  0  0
  -18.4645   -6.4691   62.9434 C   0  0  0  0  0  0  0  0  0  0  0  0
  -19.6263   -5.8767   63.4559 O   0  0  0  0  0  0  0  0  0  0  0  0
  -17.8476   -7.5736   63.6971 C   0  0  0  0  0  0  0  0  0  0  0  0
  -16.7034   -8.1414   63.1720 C   0  0  0  0  0  0  0  0  0  0  0  0
  -16.1218   -9.1762   63.8743 C   0  0  0  0  0  0  0  0  0  0  0  0
  -16.6440   -9.6218   65.0291 N   0  0  0  0  0  0  0  0  0  0  0  0
  -17.7515   -9.0826   65.5507 C   0  0  0  0  0  0  0  0  0  0  0  0
  -18.2851   -9.5833   66.7897 C   0  0  0  0  0  0  0  0  0  0  0  0
  -19.3197   -9.0866   67.2861 O   0  0  0  0  0  0  0  0  0  0  0  0
  -17.6750  -10.6196   67.4625 O   0  0  0  0  0  0  0  0  0  0  0  0
  -18.3735   -8.0380   64.8805 C   0  0  0  0  0  0  0  0  0  0  0  0
  1  2  2  0
  2  3  1  0
  2  4  1  0
  4  5  2  0
  5  6  1  0
  6  7  2  0
  7  8  1  0
  8  9  1  0
  9 10  2  0
  9 11  1  0
  8 12  2  0
 12  4  1  0
M  CHG  2   3  -1  11  -1
M  END
>  <shape_align_shape_tanimoto>  (1) 
0.65628244022998383

>  <shape_align_color_tanimoto>  (1) 
0.077350233105568503

>  <metric>  (1) 
shape

>  <metric_score>  (1) 
0.656

>  <template_pid>  (1) 
5A3W

>  <template_shape_score>  (1) 
0.656

>  <template_color_score>  (1) 
0.077

>  <template_combo_score>  (1) 
0.367

$$$$
5A3W_color_pose
     RDKit          3D

 12 12  0  0  0  0  0  0  0  0999 V2000
  -19.5238   -6.2116   63.7570 O   0  0  0  0  0  0  0  0  0  0  0  0
  -18.4793   -6.7422   63.2955 C   0  0  0  0  0  0  0  0  0  0  0  0
  -17.9303   -6.2701   62.0965 O   0  0  0  0  0  0  0  0  0  0  0  0
  -17.8410   -7.8467   64.0072 C   0  0  0  0  0  0  0  0  0  0  0  0
  -16.6973   -8.4180   63.4895 C   0  0  0  0  0  0  0  0  0  0  0  0
  -16.0976   -9.4579   64.1609 C   0  0  0  0  0  0  0  0  0  0  0  0
  -16.6578   -9.8779   65.3056 N   0  0  0  0  0  0  0  0  0  0  0  0
  -17.7761   -9.3312   65.8269 C   0  0  0  0  0  0  0  0  0  0  0  0
  -18.3093   -9.8655   67.0879 C   0  0  0  0  0  0  0  0  0  0  0  0
  -17.6798  -10.8148   67.6113 O   0  0  0  0  0  0  0  0  0  0  0  0
  -19.4584   -9.3093   67.6307 O   0  0  0  0  0  0  0  0  0  0  0  0
  -18.4155   -8.2807   65.1854 C   0  0  0  0  0  0  0  0  0  0  0  0
  1  2  2  0
  2  3  1  0
  2  4  1  0
  4  5  2  0
  5  6  1  0
  6  7  2  0
  7  8  1  0
  8  9  1  0
  9 10  2  0
  9 11  1  0
  8 12  2  0
 12  4  1  0
M  CHG  2   3  -1  11  -1
M  END
>  <shape_align_shape_tanimoto>  (2) 
0.64034572386042043

>  <shape_align_color_tanimoto>  (2) 
0.092611170685763466

>  <metric>  (2) 
color

>  <metric_score>  (2) 
0.093

>  <template_pid>  (2) 
5A3W

>  <template_shape_score>  (2) 
0.640

>  <template_color_score>  (2) 
0.093

>  <template_combo_score>  (2) 
0.366

$$$$
5A3W_combo_pose
     RDKit          3D

 12 12  0  0  0  0  0  0  0  0999 V2000
  -19.5824   -6.1206   63.5425 O   0  0  0  0  0  0  0  0  0  0  0  0
  -18.5134   -6.6147   63.1144 C   0  0  0  0  0  0  0  0  0  0  0  0
  -17.9476   -6.1340   61.9344 O   0  0  0  0  0  0  0  0  0  0  0  0
  -17.8541   -7.6837   63.8324 C   0  0  0  0  0  0  0  0  0  0  0  0
  -16.6785   -8.2328   63.3693 C   0  0  0  0  0  0  0  0  0  0  0  0
  -16.0681   -9.2501   64.0694 C   0  0  0  0  0  0  0  0  0  0  0  0
  -16.6241   -9.7175   65.2224 N   0  0  0  0  0  0  0  0  0  0  0  0
  -17.7707   -9.1998   65.6971 C   0  0  0  0  0  0  0  0  0  0  0  0
  -18.3014   -9.7535   66.9359 C   0  0  0  0  0  0  0  0  0  0  0  0
  -17.6482  -10.6842   67.4823 O   0  0  0  0  0  0  0  0  0  0  0  0
  -19.4663   -9.3125   67.5273 O   0  0  0  0  0  0  0  0  0  0  0  0
  -18.3778   -8.1875   65.0002 C   0  0  0  0  0  0  0  0  0  0  0  0
  1  2  2  0
  2  3  1  0
  2  4  1  0
  4  5  2  0
  5  6  1  0
  6  7  2  0
  7  8  1  0
  8  9  1  0
  9 10  2  0
  9 11  1  0
  8 12  2  0
 12  4  1  0
M  CHG  2   3  -1  11  -1
M  END
>  <shape_align_shape_tanimoto>  (3) 
0.65070234437200436

>  <shape_align_color_tanimoto>  (3) 
0.088909004958244497

>  <metric>  (3) 
combo

>  <metric_score>  (3) 
0.370

>  <template_pid>  (3) 
5A3W

>  <template_shape_score>  (3) 
0.651

>  <template_color_score>  (3) 
0.089

>  <template_combo_score>  (3) 
0.370

$$$$
