3PB8_shape_pose
     RDKit          3D

 11 11  0  0  0  0  0  0  0  0999 V2000
   -8.7418    1.5732  -39.1415 C   0  0  0  0  0  0  0  0  0  0  0  0
   -8.0686    2.9069  -39.0254 C   0  0  0  0  0  0  0  0  0  0  0  0
   -6.8416    2.9037  -38.8410 O   0  0  0  0  0  0  0  0  0  0  0  0
   -8.8200    4.0984  -39.1249 N   0  0  0  0  0  0  0  0  0  0  0  0
   -8.2465    5.4090  -39.0241 C   0  0  0  0  0  0  0  0  0  0  0  0
   -7.2110    5.6151  -40.1102 C   0  0  0  0  0  0  0  0  0  0  0  0
   -6.6586    6.9782  -39.9540 C   0  0  0  0  0  0  0  0  0  0  0  0
   -5.6850    7.5711  -40.7410 C   0  0  0  0  0  0  0  0  0  0  0  0
   -5.4385    8.8310  -40.2887 N   0  0  0  0  0  0  0  0  0  0  0  0
   -6.2528    9.0198  -39.2285 C   0  0  0  0  0  0  0  0  0  0  0  0
   -6.9751    7.9261  -39.0286 N   0  0  0  0  0  0  0  0  0  0  0  0
  1  2  1  0
  2  3  2  0
  2  4  1  0
  4  5  1  0
  5  6  1  0
  6  7  1  0
  7  8  2  0
  8  9  1  0
  9 10  1  0
 10 11  2  0
 11  7  1  0
M  END
>  <shape_align_shape_tanimoto>  (1) 
0.35544501449295524

>  <shape_align_color_tanimoto>  (1) 
0.018879544304474943

>  <metric>  (1) 
shape

>  <metric_score>  (1) 
0.355

>  <template_pid>  (1) 
3PB8

>  <template_shape_score>  (1) 
0.355

>  <template_color_score>  (1) 
0.019

>  <template_combo_score>  (1) 
0.187

$$$$
3PB8_color_pose
     RDKit          3D

 11 11  0  0  0  0  0  0  0  0999 V2000
   -8.9291    0.6417  -44.0340 C   0  0  0  0  0  0  0  0  0  0  0  0
   -9.9138    0.7364  -42.9262 C   0  0  0  0  0  0  0  0  0  0  0  0
  -11.1473    0.5690  -43.1514 O   0  0  0  0  0  0  0  0  0  0  0  0
   -9.4888    1.0160  -41.5969 N   0  0  0  0  0  0  0  0  0  0  0  0
  -10.4842    1.0998  -40.5441 C   0  0  0  0  0  0  0  0  0  0  0  0
   -9.7266    1.4043  -39.2683 C   0  0  0  0  0  0  0  0  0  0  0  0
   -8.9857    2.7047  -39.4076 C   0  0  0  0  0  0  0  0  0  0  0  0
   -9.4663    3.9711  -39.0875 C   0  0  0  0  0  0  0  0  0  0  0  0
   -8.4808    4.8380  -39.3668 N   0  0  0  0  0  0  0  0  0  0  0  0
   -7.4079    4.1659  -39.8467 C   0  0  0  0  0  0  0  0  0  0  0  0
   -7.7122    2.8480  -39.8749 N   0  0  0  0  0  0  0  0  0  0  0  0
  1  2  1  0
  2  3  2  0
  2  4  1  0
  4  5  1  0
  5  6  1  0
  6  7  1  0
  7  8  2  0
  8  9  1  0
  9 10  1  0
 10 11  2  0
 11  7  1  0
M  END
>  <shape_align_shape_tanimoto>  (2) 
0.29253396771430118

>  <shape_align_color_tanimoto>  (2) 
0.064372918575421711

>  <metric>  (2) 
color

>  <metric_score>  (2) 
0.064

>  <template_pid>  (2) 
3PB8

>  <template_shape_score>  (2) 
0.293

>  <template_color_score>  (2) 
0.064

>  <template_combo_score>  (2) 
0.178

$$$$
3PB8_combo_pose
     RDKit          3D

 11 11  0  0  0  0  0  0  0  0999 V2000
   -9.0910    2.0572  -39.5875 C   0  0  0  0  0  0  0  0  0  0  0  0
   -8.6065    3.4208  -39.1954 C   0  0  0  0  0  0  0  0  0  0  0  0
   -8.8757    3.7907  -38.0262 O   0  0  0  0  0  0  0  0  0  0  0  0
   -7.8830    4.2329  -40.1161 N   0  0  0  0  0  0  0  0  0  0  0  0
   -7.4587    5.5377  -39.6370 C   0  0  0  0  0  0  0  0  0  0  0  0
   -6.7019    6.3214  -40.6810 C   0  0  0  0  0  0  0  0  0  0  0  0
   -6.3225    7.6255  -40.0834 C   0  0  0  0  0  0  0  0  0  0  0  0
   -6.5858    8.1011  -38.7997 C   0  0  0  0  0  0  0  0  0  0  0  0
   -6.0514    9.3355  -38.6994 N   0  0  0  0  0  0  0  0  0  0  0  0
   -5.4635    9.6529  -39.8687 C   0  0  0  0  0  0  0  0  0  0  0  0
   -5.6365    8.6068  -40.6965 N   0  0  0  0  0  0  0  0  0  0  0  0
  1  2  1  0
  2  3  2  0
  2  4  1  0
  4  5  1  0
  5  6  1  0
  6  7  1  0
  7  8  2  0
  8  9  1  0
  9 10  1  0
 10 11  2  0
 11  7  1  0
M  END
>  <shape_align_shape_tanimoto>  (3) 
0.33763950391653441

>  <shape_align_color_tanimoto>  (3) 
0.055420756322398054

>  <metric>  (3) 
combo

>  <metric_score>  (3) 
0.197

>  <template_pid>  (3) 
3PB8

>  <template_shape_score>  (3) 
0.338

>  <template_color_score>  (3) 
0.055

>  <template_combo_score>  (3) 
0.197

$$$$
