5X54_shape_pose
     RDKit          3D

 55 60  0  0  0  0  0  0  0  0999 V2000
   13.6462    4.2306    1.3052 C   0  0  0  0  0  0  0  0  0  0  0  0
   12.6626    4.2014    2.4301 C   0  0  0  0  0  0  0  0  0  0  0  0
   11.6215    4.9110    2.4420 O   0  0  0  0  0  0  0  0  0  0  0  0
   12.9645    3.3176    3.5056 N   0  0  0  0  0  0  0  0  0  0  0  0
   12.0437    3.2146    4.6768 C   0  0  1  0  0  0  0  0  0  0  0  0
   11.6209    1.7978    4.6791 C   0  0  0  0  0  0  0  0  0  0  0  0
   10.6741    1.3433    5.7289 C   0  0  0  0  0  0  0  0  0  0  0  0
   10.3613   -0.1244    5.5146 C   0  0  0  0  0  0  0  0  0  0  0  0
   10.8783   -0.7684    4.5652 O   0  0  0  0  0  0  0  0  0  0  0  0
    9.4913   -0.7905    6.3673 O   0  0  0  0  0  0  0  0  0  0  0  0
   12.8649    3.6936    5.8011 C   0  0  0  0  0  0  0  0  0  0  0  0
   14.0785    4.0008    5.5118 O   0  0  0  0  0  0  0  0  0  0  0  0
   12.4774    3.8519    7.1269 N   0  0  0  0  0  0  0  0  0  0  0  0
   13.3599    4.3448    8.1952 C   0  0  1  0  0  0  0  0  0  0  0  0
   12.8435    5.5515    8.8795 C   0  0  0  0  0  0  0  0  0  0  0  0
   11.5312    5.4799    9.5195 C   0  0  0  0  0  0  0  0  0  0  0  0
   10.3758    5.9879    8.8853 C   0  0  0  0  0  0  0  0  0  0  0  0
    9.3219    5.7807    9.6745 N   0  0  0  0  0  0  0  0  0  0  0  0
    9.7009    5.1707   10.7873 C   0  0  0  0  0  0  0  0  0  0  0  0
    9.0320    4.7394   11.9132 C   0  0  0  0  0  0  0  0  0  0  0  0
    9.6694    4.1292   12.9528 C   0  0  0  0  0  0  0  0  0  0  0  0
   11.0526    3.9266   12.8884 C   0  0  0  0  0  0  0  0  0  0  0  0
   11.6886    4.3681   11.7520 C   0  0  0  0  0  0  0  0  0  0  0  0
   11.0658    4.9814   10.6997 C   0  0  0  0  0  0  0  0  0  0  0  0
   13.8992    3.2861    9.0582 C   0  0  0  0  0  0  0  0  0  0  0  0
   14.6729    3.5786   10.0347 O   0  0  0  0  0  0  0  0  0  0  0  0
   13.6232    1.9118    8.8861 N   0  0  0  0  0  0  0  0  0  0  0  0
   14.2078    0.8886    9.8041 C   0  0  1  0  0  0  0  0  0  0  0  0
   13.0639   -0.0356   10.0531 C   0  0  0  0  0  0  0  0  0  0  0  0
   13.2903   -1.2144   10.8869 C   0  0  0  0  0  0  0  0  0  0  0  0
   13.1404   -1.4360   12.2365 C   0  0  0  0  0  0  0  0  0  0  0  0
   13.4965   -2.6992   12.5404 N   0  0  0  0  0  0  0  0  0  0  0  0
   13.8855   -3.3416   11.4237 C   0  0  0  0  0  0  0  0  0  0  0  0
   14.3259   -4.6447   11.1528 C   0  0  0  0  0  0  0  0  0  0  0  0
   14.6341   -5.0088    9.8438 C   0  0  0  0  0  0  0  0  0  0  0  0
   14.5191   -4.1158    8.7897 C   0  0  0  0  0  0  0  0  0  0  0  0
   14.0789   -2.8204    9.0819 C   0  0  0  0  0  0  0  0  0  0  0  0
   13.7654   -2.4314   10.3745 C   0  0  0  0  0  0  0  0  0  0  0  0
   15.3061    0.2781    9.0448 C   0  0  0  0  0  0  0  0  0  0  0  0
   15.4384    0.4304    7.8036 O   0  0  0  0  0  0  0  0  0  0  0  0
   16.2544   -0.5088    9.7976 N   0  0  0  0  0  0  0  0  0  0  0  0
   17.4106   -1.1261    9.0688 C   0  0  1  0  0  0  0  0  0  0  0  0
   18.6606   -0.4014    9.4419 C   0  0  0  0  0  0  0  0  0  0  0  0
   19.9166   -0.8656    8.8404 C   0  0  0  0  0  0  0  0  0  0  0  0
   20.5014   -0.2892    7.7057 C   0  0  0  0  0  0  0  0  0  0  0  0
   21.6216   -0.9382    7.3862 N   0  0  0  0  0  0  0  0  0  0  0  0
   21.8110   -1.9366    8.2731 C   0  0  0  0  0  0  0  0  0  0  0  0
   22.8356   -2.8573    8.3443 C   0  0  0  0  0  0  0  0  0  0  0  0
   22.7851   -3.7811    9.3875 C   0  0  0  0  0  0  0  0  0  0  0  0
   21.7529   -3.7670   10.3033 C   0  0  0  0  0  0  0  0  0  0  0  0
   20.7540   -2.8257   10.1863 C   0  0  0  0  0  0  0  0  0  0  0  0
   20.7650   -1.8962    9.1705 C   0  0  0  0  0  0  0  0  0  0  0  0
   17.4762   -2.5339    9.4396 C   0  0  0  0  0  0  0  0  0  0  0  0
   16.9715   -2.9036   10.5233 O   0  0  0  0  0  0  0  0  0  0  0  0
   18.1047   -3.4202    8.5567 O   0  0  0  0  0  0  0  0  0  0  0  0
  1  2  1  0
  2  3  2  0
  2  4  1  0
  4  5  1  0
  5  6  1  1
  6  7  1  0
  7  8  1  0
  8  9  2  0
  8 10  1  0
  5 11  1  0
 11 12  2  0
 11 13  1  0
 13 14  1  0
 14 15  1  1
 15 16  1  0
 16 17  2  0
 17 18  1  0
 18 19  1  0
 19 20  2  0
 20 21  1  0
 21 22  2  0
 22 23  1  0
 23 24  2  0
 14 25  1  0
 25 26  2  0
 25 27  1  0
 27 28  1  0
 28 29  1  6
 29 30  1  0
 30 31  2  0
 31 32  1  0
 32 33  1  0
 33 34  2  0
 34 35  1  0
 35 36  2  0
 36 37  1  0
 37 38  2  0
 28 39  1  0
 39 40  2  0
 39 41  1  0
 41 42  1  0
 42 43  1  1
 43 44  1  0
 44 45  2  0
 45 46  1  0
 46 47  1  0
 47 48  2  0
 48 49  1  0
 49 50  2  0
 50 51  1  0
 51 52  2  0
 42 53  1  0
 53 54  2  0
 53 55  1  0
 24 16  1  0
 38 30  1  0
 52 44  1  0
 24 19  1  0
 38 33  1  0
 52 47  1  0
M  CHG  2  10  -1  55  -1
M  END
>  <shape_align_shape_tanimoto>  (1) 
0.34338475131928592

>  <shape_align_color_tanimoto>  (1) 
0.012486959152254682

>  <metric>  (1) 
shape

>  <metric_score>  (1) 
0.343

>  <template_pid>  (1) 
5X54

>  <template_shape_score>  (1) 
0.343

>  <template_color_score>  (1) 
0.012

>  <template_combo_score>  (1) 
0.178

$$$$
5X54_color_pose
     RDKit          3D

 55 60  0  0  0  0  0  0  0  0999 V2000
   22.6722   -6.6046   10.1818 C   0  0  0  0  0  0  0  0  0  0  0  0
   22.3615   -5.1478   10.4468 C   0  0  0  0  0  0  0  0  0  0  0  0
   22.3331   -4.7506   11.6394 O   0  0  0  0  0  0  0  0  0  0  0  0
   22.1217   -4.3319    9.3224 N   0  0  0  0  0  0  0  0  0  0  0  0
   21.8009   -2.9051    9.3899 C   0  0  1  0  0  0  0  0  0  0  0  0
   22.8866   -2.0028    9.0708 C   0  0  0  0  0  0  0  0  0  0  0  0
   23.6041   -2.0173    7.7882 C   0  0  0  0  0  0  0  0  0  0  0  0
   22.8344   -1.7686    6.5587 C   0  0  0  0  0  0  0  0  0  0  0  0
   21.6151   -1.6170    6.4513 O   0  0  0  0  0  0  0  0  0  0  0  0
   23.5876   -1.6951    5.3638 O   0  0  0  0  0  0  0  0  0  0  0  0
   20.3987   -2.6355    9.0948 C   0  0  0  0  0  0  0  0  0  0  0  0
   19.6498   -3.6680    8.9561 O   0  0  0  0  0  0  0  0  0  0  0  0
   19.7499   -1.3950    8.9486 N   0  0  0  0  0  0  0  0  0  0  0  0
   18.3035   -1.3372    8.6991 C   0  0  1  0  0  0  0  0  0  0  0  0
   17.7681   -0.4704    9.7875 C   0  0  0  0  0  0  0  0  0  0  0  0
   16.3331   -0.2391    9.8484 C   0  0  0  0  0  0  0  0  0  0  0  0
   15.5689    0.8422    9.4665 C   0  0  0  0  0  0  0  0  0  0  0  0
   14.2714    0.5951    9.7450 N   0  0  0  0  0  0  0  0  0  0  0  0
   14.1547   -0.6175   10.2997 C   0  0  0  0  0  0  0  0  0  0  0  0
   13.1280   -1.3864   10.7892 C   0  0  0  0  0  0  0  0  0  0  0  0
   13.2992   -2.6443   11.3368 C   0  0  0  0  0  0  0  0  0  0  0  0
   14.5654   -3.1860   11.4107 C   0  0  0  0  0  0  0  0  0  0  0  0
   15.6246   -2.4459   10.9316 C   0  0  0  0  0  0  0  0  0  0  0  0
   15.4350   -1.1766   10.3810 C   0  0  0  0  0  0  0  0  0  0  0  0
   17.9803   -0.8859    7.3418 C   0  0  0  0  0  0  0  0  0  0  0  0
   18.8536   -0.4792    6.5415 O   0  0  0  0  0  0  0  0  0  0  0  0
   16.6269   -0.8770    6.8131 N   0  0  0  0  0  0  0  0  0  0  0  0
   16.4689   -0.4212    5.4628 C   0  0  1  0  0  0  0  0  0  0  0  0
   16.3853   -1.7121    4.6331 C   0  0  0  0  0  0  0  0  0  0  0  0
   15.2967   -2.6117    5.0016 C   0  0  0  0  0  0  0  0  0  0  0  0
   15.4843   -3.7046    5.8651 C   0  0  0  0  0  0  0  0  0  0  0  0
   14.3176   -4.3419    6.0523 N   0  0  0  0  0  0  0  0  0  0  0  0
   13.3363   -3.7094    5.3362 C   0  0  0  0  0  0  0  0  0  0  0  0
   11.9920   -3.9926    5.2039 C   0  0  0  0  0  0  0  0  0  0  0  0
   11.2086   -3.1885    4.3953 C   0  0  0  0  0  0  0  0  0  0  0  0
   11.8439   -2.1419    3.7689 C   0  0  0  0  0  0  0  0  0  0  0  0
   13.1814   -1.8582    3.8999 C   0  0  0  0  0  0  0  0  0  0  0  0
   13.9610   -2.6555    4.7026 C   0  0  0  0  0  0  0  0  0  0  0  0
   15.4333    0.5039    5.1122 C   0  0  0  0  0  0  0  0  0  0  0  0
   15.4328    0.9306    3.8832 O   0  0  0  0  0  0  0  0  0  0  0  0
   14.3951    1.0427    5.9075 N   0  0  0  0  0  0  0  0  0  0  0  0
   13.4280    2.0189    5.3768 C   0  0  1  0  0  0  0  0  0  0  0  0
   12.0390    1.4924    5.3285 C   0  0  0  0  0  0  0  0  0  0  0  0
   11.5259    1.0847    6.6348 C   0  0  0  0  0  0  0  0  0  0  0  0
   11.4821   -0.2497    7.0584 C   0  0  0  0  0  0  0  0  0  0  0  0
   10.9838   -0.3258    8.2950 N   0  0  0  0  0  0  0  0  0  0  0  0
   10.6936    0.9199    8.7125 C   0  0  0  0  0  0  0  0  0  0  0  0
   10.1583    1.3944    9.9127 C   0  0  0  0  0  0  0  0  0  0  0  0
    9.9405    2.7397   10.1207 C   0  0  0  0  0  0  0  0  0  0  0  0
   10.2863    3.5935    9.0669 C   0  0  0  0  0  0  0  0  0  0  0  0
   10.8108    3.1301    7.8930 C   0  0  0  0  0  0  0  0  0  0  0  0
   11.0232    1.7886    7.6980 C   0  0  0  0  0  0  0  0  0  0  0  0
   13.6141    3.2836    6.0815 C   0  0  0  0  0  0  0  0  0  0  0  0
   14.1781    3.4181    7.1894 O   0  0  0  0  0  0  0  0  0  0  0  0
   13.1240    4.4508    5.4773 O   0  0  0  0  0  0  0  0  0  0  0  0
  1  2  1  0
  2  3  2  0
  2  4  1  0
  4  5  1  0
  5  6  1  6
  6  7  1  0
  7  8  1  0
  8  9  2  0
  8 10  1  0
  5 11  1  0
 11 12  2  0
 11 13  1  0
 13 14  1  0
 14 15  1  1
 15 16  1  0
 16 17  2  0
 17 18  1  0
 18 19  1  0
 19 20  2  0
 20 21  1  0
 21 22  2  0
 22 23  1  0
 23 24  2  0
 14 25  1  0
 25 26  2  0
 25 27  1  0
 27 28  1  0
 28 29  1  6
 29 30  1  0
 30 31  2  0
 31 32  1  0
 32 33  1  0
 33 34  2  0
 34 35  1  0
 35 36  2  0
 36 37  1  0
 37 38  2  0
 28 39  1  0
 39 40  2  0
 39 41  1  0
 41 42  1  0
 42 43  1  1
 43 44  1  0
 44 45  2  0
 45 46  1  0
 46 47  1  0
 47 48  2  0
 48 49  1  0
 49 50  2  0
 50 51  1  0
 51 52  2  0
 42 53  1  0
 53 54  2  0
 53 55  1  0
 24 16  1  0
 38 30  1  0
 52 44  1  0
 24 19  1  0
 38 33  1  0
 52 47  1  0
M  CHG  2  10  -1  55  -1
M  END
>  <shape_align_shape_tanimoto>  (2) 
0.29422425887586778

>  <shape_align_color_tanimoto>  (2) 
0.053745408678316946

>  <metric>  (2) 
color

>  <metric_score>  (2) 
0.054

>  <template_pid>  (2) 
5X54

>  <template_shape_score>  (2) 
0.294

>  <template_color_score>  (2) 
0.054

>  <template_combo_score>  (2) 
0.174

$$$$
5X54_combo_pose
     RDKit          3D

 55 60  0  0  0  0  0  0  0  0999 V2000
   17.6657   -6.8597   15.5324 C   0  0  0  0  0  0  0  0  0  0  0  0
   18.1348   -5.4410   15.3314 C   0  0  0  0  0  0  0  0  0  0  0  0
   19.0148   -5.0559   16.1180 O   0  0  0  0  0  0  0  0  0  0  0  0
   17.5306   -4.7225   14.2886 N   0  0  0  0  0  0  0  0  0  0  0  0
   17.7474   -3.3710   13.8695 C   0  0  1  0  0  0  0  0  0  0  0  0
   18.3125   -2.5111   15.0033 C   0  0  0  0  0  0  0  0  0  0  0  0
   17.3974   -2.3646   16.1737 C   0  0  0  0  0  0  0  0  0  0  0  0
   16.1284   -1.6581   15.8974 C   0  0  0  0  0  0  0  0  0  0  0  0
   15.7760   -1.1801   14.8019 O   0  0  0  0  0  0  0  0  0  0  0  0
   15.2372   -1.5100   16.9619 O   0  0  0  0  0  0  0  0  0  0  0  0
   18.5681   -3.2147   12.6466 C   0  0  0  0  0  0  0  0  0  0  0  0
   19.3683   -4.1582   12.4021 O   0  0  0  0  0  0  0  0  0  0  0  0
   18.3935   -2.0624   11.8675 N   0  0  0  0  0  0  0  0  0  0  0  0
   19.0787   -1.6930   10.6577 C   0  0  1  0  0  0  0  0  0  0  0  0
   19.4618   -2.9834    9.8782 C   0  0  0  0  0  0  0  0  0  0  0  0
   20.1651   -2.5775    8.6451 C   0  0  0  0  0  0  0  0  0  0  0  0
   19.7612   -2.5613    7.3333 C   0  0  0  0  0  0  0  0  0  0  0  0
   20.7703   -2.1351    6.5415 N   0  0  0  0  0  0  0  0  0  0  0  0
   21.8589   -1.8613    7.3094 C   0  0  0  0  0  0  0  0  0  0  0  0
   23.1455   -1.4034    7.0072 C   0  0  0  0  0  0  0  0  0  0  0  0
   24.0756   -1.2149    8.0260 C   0  0  0  0  0  0  0  0  0  0  0  0
   23.7069   -1.4864    9.3215 C   0  0  0  0  0  0  0  0  0  0  0  0
   22.4395   -1.9400    9.6368 C   0  0  0  0  0  0  0  0  0  0  0  0
   21.4902   -2.1351    8.6297 C   0  0  0  0  0  0  0  0  0  0  0  0
   18.3171   -0.8096    9.7800 C   0  0  0  0  0  0  0  0  0  0  0  0
   18.8261   -0.4432    8.6848 O   0  0  0  0  0  0  0  0  0  0  0  0
   17.0001   -0.3072   10.0382 N   0  0  0  0  0  0  0  0  0  0  0  0
   16.2517    0.5023    9.1264 C   0  0  1  0  0  0  0  0  0  0  0  0
   15.1030   -0.3238    8.5052 C   0  0  0  0  0  0  0  0  0  0  0  0
   14.1572   -0.8388    9.4919 C   0  0  0  0  0  0  0  0  0  0  0  0
   12.9380   -0.1995    9.7756 C   0  0  0  0  0  0  0  0  0  0  0  0
   12.3043   -0.8923   10.7381 N   0  0  0  0  0  0  0  0  0  0  0  0
   13.0450   -1.9722   11.1128 C   0  0  0  0  0  0  0  0  0  0  0  0
   12.7506   -2.9172   12.0397 C   0  0  0  0  0  0  0  0  0  0  0  0
   13.7065   -3.9372   12.2156 C   0  0  0  0  0  0  0  0  0  0  0  0
   14.8481   -3.8968   11.4422 C   0  0  0  0  0  0  0  0  0  0  0  0
   15.1078   -2.9189   10.5103 C   0  0  0  0  0  0  0  0  0  0  0  0
   14.1765   -1.9188   10.3343 C   0  0  0  0  0  0  0  0  0  0  0  0
   15.6807    1.7658    9.5789 C   0  0  0  0  0  0  0  0  0  0  0  0
   14.8180    2.2902    8.7630 O   0  0  0  0  0  0  0  0  0  0  0  0
   15.9324    2.4920   10.7750 N   0  0  0  0  0  0  0  0  0  0  0  0
   15.1862    3.6967   10.9551 C   0  0  1  0  0  0  0  0  0  0  0  0
   14.8129    4.0549   12.3384 C   0  0  0  0  0  0  0  0  0  0  0  0
   15.8866    4.3190   13.2867 C   0  0  0  0  0  0  0  0  0  0  0  0
   16.3233    5.6447   13.5404 C   0  0  0  0  0  0  0  0  0  0  0  0
   17.3277    5.6481   14.3971 N   0  0  0  0  0  0  0  0  0  0  0  0
   17.5830    4.3847   14.7314 C   0  0  0  0  0  0  0  0  0  0  0  0
   18.5458    3.9086   15.6125 C   0  0  0  0  0  0  0  0  0  0  0  0
   18.5938    2.5184   15.7989 C   0  0  0  0  0  0  0  0  0  0  0  0
   17.7040    1.6899   15.1164 C   0  0  0  0  0  0  0  0  0  0  0  0
   16.7711    2.2144   14.2546 C   0  0  0  0  0  0  0  0  0  0  0  0
   16.7086    3.5545   14.0605 C   0  0  0  0  0  0  0  0  0  0  0  0
   15.8647    4.8555   10.2682 C   0  0  0  0  0  0  0  0  0  0  0  0
   17.0702    4.8719    9.9694 O   0  0  0  0  0  0  0  0  0  0  0  0
   15.0538    5.9711    9.9586 O   0  0  0  0  0  0  0  0  0  0  0  0
  1  2  1  0
  2  3  2  0
  2  4  1  0
  4  5  1  0
  5  6  1  1
  6  7  1  0
  7  8  1  0
  8  9  2  0
  8 10  1  0
  5 11  1  0
 11 12  2  0
 11 13  1  0
 13 14  1  0
 14 15  1  6
 15 16  1  0
 16 17  2  0
 17 18  1  0
 18 19  1  0
 19 20  2  0
 20 21  1  0
 21 22  2  0
 22 23  1  0
 23 24  2  0
 14 25  1  0
 25 26  2  0
 25 27  1  0
 27 28  1  0
 28 29  1  1
 29 30  1  0
 30 31  2  0
 31 32  1  0
 32 33  1  0
 33 34  2  0
 34 35  1  0
 35 36  2  0
 36 37  1  0
 37 38  2  0
 28 39  1  0
 39 40  2  0
 39 41  1  0
 41 42  1  0
 42 43  1  1
 43 44  1  0
 44 45  2  0
 45 46  1  0
 46 47  1  0
 47 48  2  0
 48 49  1  0
 49 50  2  0
 50 51  1  0
 51 52  2  0
 42 53  1  0
 53 54  2  0
 53 55  1  0
 24 16  1  0
 38 30  1  0
 52 44  1  0
 24 19  1  0
 38 33  1  0
 52 47  1  0
M  CHG  2  10  -1  55  -1
M  END
>  <shape_align_shape_tanimoto>  (3) 
0.3211602240311775

>  <shape_align_color_tanimoto>  (3) 
0.036240664444298867

>  <metric>  (3) 
combo

>  <metric_score>  (3) 
0.179

>  <template_pid>  (3) 
5X54

>  <template_shape_score>  (3) 
0.321

>  <template_color_score>  (3) 
0.036

>  <template_combo_score>  (3) 
0.179

$$$$
