5AOK_shape_pose
     RDKit          3D

 18 21  0  0  0  0  0  0  0  0999 V2000
   89.2062   96.7152  -46.0446 C   0  0  0  0  0  0  0  0  0  0  0  0
   89.7646   97.8065  -45.4074 C   0  0  0  0  0  0  0  0  0  0  0  0
   90.5025   97.3201  -44.3225 C   0  0  0  0  0  0  0  0  0  0  0  0
   90.4024   95.9846  -44.2932 N   0  0  0  0  0  0  0  0  0  0  0  0
   90.9714   95.0447  -43.3854 C   0  0  0  0  0  0  0  0  0  0  0  0
   90.3715   94.1410  -42.6409 O   0  0  0  0  0  0  0  0  0  0  0  0
   91.2296   93.4530  -41.9271 C   0  0  0  0  0  0  0  0  0  0  0  0
   90.9350   92.3490  -40.9685 C   0  0  0  0  0  0  0  0  0  0  0  0
   91.7904   91.0708  -41.1512 C   0  0  0  0  0  0  0  0  0  0  0  0
   91.8977   91.9779  -39.9314 C   0  0  0  0  0  0  0  0  0  0  0  0
   92.4495   93.9492  -42.2364 N   0  0  0  0  0  0  0  0  0  0  0  0
   92.3232   94.9386  -43.1391 C   0  0  0  0  0  0  0  0  0  0  0  0
   93.4355   95.6987  -43.6975 C   0  0  0  0  0  0  0  0  0  0  0  0
   93.4035   96.6942  -44.5951 N   0  0  0  0  0  0  0  0  0  0  0  0
   94.6642   97.0601  -44.7828 N   0  0  0  0  0  0  0  0  0  0  0  0
   95.4707   96.3326  -44.0394 N   0  0  0  0  0  0  0  0  0  0  0  0
   94.7200   95.4832  -43.3604 N   0  0  0  0  0  0  0  0  0  0  0  0
   89.6176   95.6146  -45.3352 C   0  0  0  0  0  0  0  0  0  0  0  0
  1  2  1  0
  2  3  2  0
  3  4  1  0
  4  5  1  0
  5  6  1  0
  6  7  1  0
  7  8  1  0
  8  9  1  0
  9 10  1  0
  7 11  2  0
 11 12  1  0
 12 13  1  0
 13 14  2  0
 14 15  1  0
 15 16  2  0
 16 17  1  0
  4 18  1  0
 18  1  2  0
 12  5  2  0
 17 13  1  0
 10  8  1  0
M  END
>  <shape_align_shape_tanimoto>  (1) 
0.82908474322855596

>  <shape_align_color_tanimoto>  (1) 
0.058863422947513254

>  <metric>  (1) 
shape

>  <metric_score>  (1) 
0.829

>  <template_pid>  (1) 
5AOK

>  <template_shape_score>  (1) 
0.829

>  <template_color_score>  (1) 
0.059

>  <template_combo_score>  (1) 
0.444

$$$$
5AOK_color_pose
     RDKit          3D

 18 21  0  0  0  0  0  0  0  0999 V2000
   89.8022   91.1564  -41.2182 C   0  0  0  0  0  0  0  0  0  0  0  0
   89.6933   92.1455  -40.2791 C   0  0  0  0  0  0  0  0  0  0  0  0
   90.1506   93.3057  -40.8524 C   0  0  0  0  0  0  0  0  0  0  0  0
   90.5254   93.0085  -42.1141 N   0  0  0  0  0  0  0  0  0  0  0  0
   91.0535   94.0027  -42.9956 C   0  0  0  0  0  0  0  0  0  0  0  0
   90.4994   94.3789  -44.1266 O   0  0  0  0  0  0  0  0  0  0  0  0
   91.2243   95.3169  -44.7186 C   0  0  0  0  0  0  0  0  0  0  0  0
   90.9250   95.9910  -46.0117 C   0  0  0  0  0  0  0  0  0  0  0  0
   92.0185   96.5813  -46.8165 C   0  0  0  0  0  0  0  0  0  0  0  0
   91.1313   97.5091  -46.0204 C   0  0  0  0  0  0  0  0  0  0  0  0
   92.2928   95.5574  -43.9367 N   0  0  0  0  0  0  0  0  0  0  0  0
   92.2040   94.7520  -42.8641 C   0  0  0  0  0  0  0  0  0  0  0  0
   93.1463   94.6745  -41.7550 C   0  0  0  0  0  0  0  0  0  0  0  0
   93.0543   93.8687  -40.6852 N   0  0  0  0  0  0  0  0  0  0  0  0
   94.1117   94.0951  -39.8947 N   0  0  0  0  0  0  0  0  0  0  0  0
   94.8457   95.0198  -40.4578 N   0  0  0  0  0  0  0  0  0  0  0  0
   94.2734   95.3859  -41.5934 N   0  0  0  0  0  0  0  0  0  0  0  0
   90.3250   91.7004  -42.3702 C   0  0  0  0  0  0  0  0  0  0  0  0
  1  2  1  0
  2  3  2  0
  3  4  1  0
  4  5  1  0
  5  6  1  0
  6  7  1  0
  7  8  1  0
  8  9  1  0
  9 10  1  0
  7 11  2  0
 11 12  1  0
 12 13  1  0
 13 14  2  0
 14 15  1  0
 15 16  2  0
 16 17  1  0
  4 18  1  0
 18  1  2  0
 12  5  2  0
 17 13  1  0
 10  8  1  0
M  END
>  <shape_align_shape_tanimoto>  (2) 
0.75478732099220169

>  <shape_align_color_tanimoto>  (2) 
0.083799430591889892

>  <metric>  (2) 
color

>  <metric_score>  (2) 
0.084

>  <template_pid>  (2) 
5AOK

>  <template_shape_score>  (2) 
0.755

>  <template_color_score>  (2) 
0.084

>  <template_combo_score>  (2) 
0.419

$$$$
5AOK_combo_pose
     RDKit          3D

 18 21  0  0  0  0  0  0  0  0999 V2000
   89.2062   96.7152  -46.0446 C   0  0  0  0  0  0  0  0  0  0  0  0
   89.7646   97.8065  -45.4074 C   0  0  0  0  0  0  0  0  0  0  0  0
   90.5025   97.3201  -44.3225 C   0  0  0  0  0  0  0  0  0  0  0  0
   90.4024   95.9846  -44.2932 N   0  0  0  0  0  0  0  0  0  0  0  0
   90.9714   95.0447  -43.3854 C   0  0  0  0  0  0  0  0  0  0  0  0
   90.3715   94.1410  -42.6409 O   0  0  0  0  0  0  0  0  0  0  0  0
   91.2296   93.4530  -41.9271 C   0  0  0  0  0  0  0  0  0  0  0  0
   90.9350   92.3490  -40.9685 C   0  0  0  0  0  0  0  0  0  0  0  0
   91.7904   91.0708  -41.1512 C   0  0  0  0  0  0  0  0  0  0  0  0
   91.8977   91.9779  -39.9314 C   0  0  0  0  0  0  0  0  0  0  0  0
   92.4495   93.9492  -42.2364 N   0  0  0  0  0  0  0  0  0  0  0  0
   92.3232   94.9386  -43.1391 C   0  0  0  0  0  0  0  0  0  0  0  0
   93.4355   95.6987  -43.6975 C   0  0  0  0  0  0  0  0  0  0  0  0
   93.4035   96.6942  -44.5951 N   0  0  0  0  0  0  0  0  0  0  0  0
   94.6642   97.0601  -44.7828 N   0  0  0  0  0  0  0  0  0  0  0  0
   95.4707   96.3326  -44.0394 N   0  0  0  0  0  0  0  0  0  0  0  0
   94.7200   95.4832  -43.3604 N   0  0  0  0  0  0  0  0  0  0  0  0
   89.6176   95.6146  -45.3352 C   0  0  0  0  0  0  0  0  0  0  0  0
  1  2  1  0
  2  3  2  0
  3  4  1  0
  4  5  1  0
  5  6  1  0
  6  7  1  0
  7  8  1  0
  8  9  1  0
  9 10  1  0
  7 11  2  0
 11 12  1  0
 12 13  1  0
 13 14  2  0
 14 15  1  0
 15 16  2  0
 16 17  1  0
  4 18  1  0
 18  1  2  0
 12  5  2  0
 17 13  1  0
 10  8  1  0
M  END
>  <shape_align_shape_tanimoto>  (3) 
0.82908474322855596

>  <shape_align_color_tanimoto>  (3) 
0.058863422947513254

>  <metric>  (3) 
combo

>  <metric_score>  (3) 
0.444

>  <template_pid>  (3) 
5AOK

>  <template_shape_score>  (3) 
0.829

>  <template_color_score>  (3) 
0.059

>  <template_combo_score>  (3) 
0.444

$$$$
