6QR4_shape_pose
     RDKit          3D

 25 28  0  0  0  0  0  0  0  0999 V2000
   33.6278   27.6930   13.4662 C   0  0  0  0  0  0  0  0  0  0  0  0
   34.8654   27.2327   14.0986 N   0  0  2  0  0  0  0  0  0  0  0  0
   35.1667   28.0110   15.2377 C   0  0  0  0  0  0  0  0  0  0  0  0
   36.5633   27.9765   15.7094 C   0  0  0  0  0  0  0  0  0  0  0  0
   37.4850   26.9828   15.1208 C   0  0  0  0  0  0  0  0  0  0  0  0
   37.0572   26.3375   13.8674 C   0  0  0  0  0  0  0  0  0  0  0  0
   35.9019   26.9908   13.1628 C   0  0  2  0  0  0  0  0  0  0  0  0
   36.2338   28.0437   12.1804 C   0  0  0  0  0  0  0  0  0  0  0  0
   36.6823   29.3185   12.6706 N   0  0  0  0  0  0  0  0  0  0  0  0
   35.9684   30.4092   13.0018 C   0  0  0  0  0  0  0  0  0  0  0  0
   36.7759   31.4355   13.4223 C   0  0  0  0  0  0  0  0  0  0  0  0
   38.0624   30.9566   13.3479 C   0  0  0  0  0  0  0  0  0  0  0  0
   39.2553   31.5814   13.6502 C   0  0  0  0  0  0  0  0  0  0  0  0
   40.4466   30.8939   13.4894 C   0  0  0  0  0  0  0  0  0  0  0  0
   40.4060   29.5901   13.0267 C   0  0  0  0  0  0  0  0  0  0  0  0
   41.6526   28.8464   12.8497 C   0  0  0  0  0  0  0  0  0  0  0  0
   41.8259   27.5633   13.2588 N   0  0  0  0  0  0  0  0  0  0  0  0
   43.0682   27.1734   12.9533 N   0  0  0  0  0  0  0  0  0  0  0  0
   43.7207   28.1839   12.3461 C   0  0  0  0  0  0  0  0  0  0  0  0
   45.0744   28.1799   11.8586 N   0  0  0  0  0  0  0  0  0  0  0  0
   42.8375   29.2588   12.2700 C   0  0  0  0  0  0  0  0  0  0  0  0
   43.0608   30.5493   11.7150 C   0  0  0  0  0  0  0  0  0  0  0  0
   43.2446   31.6002   11.2739 N   0  0  0  0  0  0  0  0  0  0  0  0
   39.1923   28.9951   12.7337 C   0  0  0  0  0  0  0  0  0  0  0  0
   37.9900   29.6558   12.8847 C   0  0  0  0  0  0  0  0  0  0  0  0
  2  1  1  6
  2  3  1  0
  3  4  1  0
  4  5  1  0
  5  6  1  0
  6  7  1  0
  7  8  1  1
  8  9  1  0
  9 10  1  0
 10 11  2  0
 11 12  1  0
 12 13  2  0
 13 14  1  0
 14 15  2  0
 15 16  1  0
 16 17  2  0
 17 18  1  0
 18 19  1  0
 19 20  1  0
 19 21  2  0
 21 22  1  0
 22 23  3  0
 15 24  1  0
 24 25  2  0
  7  2  1  0
 25  9  1  0
 25 12  1  0
 21 16  1  0
M  CHG  1   2   1
M  END
>  <shape_align_shape_tanimoto>  (1) 
0.52379709699818933

>  <shape_align_color_tanimoto>  (1) 
0.064689174043930875

>  <metric>  (1) 
shape

>  <metric_score>  (1) 
0.524

>  <template_pid>  (1) 
6QR4

>  <template_shape_score>  (1) 
0.524

>  <template_color_score>  (1) 
0.065

>  <template_combo_score>  (1) 
0.294

$$$$
6QR4_color_pose
     RDKit          3D

 25 28  0  0  0  0  0  0  0  0999 V2000
   34.0277   27.9671   13.3534 C   0  0  0  0  0  0  0  0  0  0  0  0
   35.1875   27.3714   13.9257 N   0  0  2  0  0  0  0  0  0  0  0  0
   35.5195   27.9484   15.1775 C   0  0  0  0  0  0  0  0  0  0  0  0
   36.9312   27.6649   15.6313 C   0  0  0  0  0  0  0  0  0  0  0  0
   37.2666   26.2741   15.1188 C   0  0  0  0  0  0  0  0  0  0  0  0
   37.3841   26.4042   13.6066 C   0  0  0  0  0  0  0  0  0  0  0  0
   36.2602   27.1585   12.9907 C   0  0  2  0  0  0  0  0  0  0  0  0
   36.6665   28.2712   12.1170 C   0  0  0  0  0  0  0  0  0  0  0  0
   37.1418   29.4916   12.6791 N   0  0  0  0  0  0  0  0  0  0  0  0
   36.3138   30.5027   13.0658 C   0  0  0  0  0  0  0  0  0  0  0  0
   37.0473   31.5464   13.5865 C   0  0  0  0  0  0  0  0  0  0  0  0
   38.3688   31.1757   13.5216 C   0  0  0  0  0  0  0  0  0  0  0  0
   39.5126   31.8517   13.8997 C   0  0  0  0  0  0  0  0  0  0  0  0
   40.7499   31.2600   13.7177 C   0  0  0  0  0  0  0  0  0  0  0  0
   40.7729   30.0001   13.1562 C   0  0  0  0  0  0  0  0  0  0  0  0
   42.0686   29.3665   12.9587 C   0  0  0  0  0  0  0  0  0  0  0  0
   43.1067   29.3023   13.8267 N   0  0  0  0  0  0  0  0  0  0  0  0
   44.1041   28.6324   13.2529 N   0  0  0  0  0  0  0  0  0  0  0  0
   43.7358   28.2531   12.0144 C   0  0  0  0  0  0  0  0  0  0  0  0
   44.5292   27.5108   11.0730 N   0  0  0  0  0  0  0  0  0  0  0  0
   42.4430   28.7035   11.7906 C   0  0  0  0  0  0  0  0  0  0  0  0
   41.6798   28.5112   10.5977 C   0  0  0  0  0  0  0  0  0  0  0  0
   41.0754   28.3672    9.6262 N   0  0  0  0  0  0  0  0  0  0  0  0
   39.6222   29.3361   12.7835 C   0  0  0  0  0  0  0  0  0  0  0  0
   38.3864   29.9213   12.9639 C   0  0  0  0  0  0  0  0  0  0  0  0
  2  1  1  6
  2  3  1  0
  3  4  1  0
  4  5  1  0
  5  6  1  0
  6  7  1  0
  7  8  1  1
  8  9  1  0
  9 10  1  0
 10 11  2  0
 11 12  1  0
 12 13  2  0
 13 14  1  0
 14 15  2  0
 15 16  1  0
 16 17  2  0
 17 18  1  0
 18 19  1  0
 19 20  1  0
 19 21  2  0
 21 22  1  0
 22 23  3  0
 15 24  1  0
 24 25  2  0
  7  2  1  0
 25  9  1  0
 25 12  1  0
 21 16  1  0
M  CHG  1   2   1
M  END
>  <shape_align_shape_tanimoto>  (2) 
0.48988266969035316

>  <shape_align_color_tanimoto>  (2) 
0.098636965270328253

>  <metric>  (2) 
color

>  <metric_score>  (2) 
0.099

>  <template_pid>  (2) 
6QR4

>  <template_shape_score>  (2) 
0.490

>  <template_color_score>  (2) 
0.099

>  <template_combo_score>  (2) 
0.294

$$$$
6QR4_combo_pose
     RDKit          3D

 25 28  0  0  0  0  0  0  0  0999 V2000
   34.0458   27.5843   13.4474 C   0  0  0  0  0  0  0  0  0  0  0  0
   35.3194   27.3553   14.1414 N   0  0  2  0  0  0  0  0  0  0  0  0
   35.5251   28.2447   15.2071 C   0  0  0  0  0  0  0  0  0  0  0  0
   36.9149   28.3153   15.6811 C   0  0  0  0  0  0  0  0  0  0  0  0
   37.8821   27.2877   15.2464 C   0  0  0  0  0  0  0  0  0  0  0  0
   37.5717   26.5892   13.9805 C   0  0  0  0  0  0  0  0  0  0  0  0
   36.3910   27.1518   13.2384 C   0  0  2  0  0  0  0  0  0  0  0  0
   36.6726   28.1721   12.2119 C   0  0  0  0  0  0  0  0  0  0  0  0
   37.0095   29.4940   12.5996 N   0  0  0  0  0  0  0  0  0  0  0  0
   36.1842   30.5362   12.8096 C   0  0  0  0  0  0  0  0  0  0  0  0
   36.8880   31.6656   13.1645 C   0  0  0  0  0  0  0  0  0  0  0  0
   38.2163   31.2987   13.1731 C   0  0  0  0  0  0  0  0  0  0  0  0
   39.3387   32.0506   13.4594 C   0  0  0  0  0  0  0  0  0  0  0  0
   40.5871   31.4594   13.3999 C   0  0  0  0  0  0  0  0  0  0  0  0
   40.6785   30.1247   13.0535 C   0  0  0  0  0  0  0  0  0  0  0  0
   41.9883   29.4845   12.9855 C   0  0  0  0  0  0  0  0  0  0  0  0
   43.0213   29.5497   13.8388 N   0  0  0  0  0  0  0  0  0  0  0  0
   44.0339   28.7984   13.3787 N   0  0  0  0  0  0  0  0  0  0  0  0
   43.6353   28.2495   12.2161 C   0  0  0  0  0  0  0  0  0  0  0  0
   44.3564   27.3739   11.3466 N   0  0  0  0  0  0  0  0  0  0  0  0
   42.3369   28.6542   11.9177 C   0  0  0  0  0  0  0  0  0  0  0  0
   41.5374   28.3091   10.7886 C   0  0  0  0  0  0  0  0  0  0  0  0
   40.8869   28.0468    9.8852 N   0  0  0  0  0  0  0  0  0  0  0  0
   39.5322   29.3972   12.7718 C   0  0  0  0  0  0  0  0  0  0  0  0
   38.2736   29.9632   12.8242 C   0  0  0  0  0  0  0  0  0  0  0  0
  2  1  1  6
  2  3  1  0
  3  4  1  0
  4  5  1  0
  5  6  1  0
  6  7  1  0
  7  8  1  1
  8  9  1  0
  9 10  1  0
 10 11  2  0
 11 12  1  0
 12 13  2  0
 13 14  1  0
 14 15  2  0
 15 16  1  0
 16 17  2  0
 17 18  1  0
 18 19  1  0
 19 20  1  0
 19 21  2  0
 21 22  1  0
 22 23  3  0
 15 24  1  0
 24 25  2  0
  7  2  1  0
 25  9  1  0
 25 12  1  0
 21 16  1  0
M  CHG  1   2   1
M  END
>  <shape_align_shape_tanimoto>  (3) 
0.49578098659836967

>  <shape_align_color_tanimoto>  (3) 
0.093578517956115451

>  <metric>  (3) 
combo

>  <metric_score>  (3) 
0.295

>  <template_pid>  (3) 
6QR4

>  <template_shape_score>  (3) 
0.496

>  <template_color_score>  (3) 
0.094

>  <template_combo_score>  (3) 
0.295

$$$$
