1BQ4_shape_pose
     RDKit          3D

 24 24  0  0  0  0  0  0  0  0999 V2000
   -4.1819   30.2148   73.1653 O   0  0  0  0  0  0  0  0  0  0  0  0
   -3.0687   30.2745   73.7932 C   0  0  0  0  0  0  0  0  0  0  0  0
   -2.0387   30.8957   73.1378 O   0  0  0  0  0  0  0  0  0  0  0  0
   -2.9957   29.6887   75.1191 C   0  0  0  0  0  0  0  0  0  0  0  0
   -3.9592   28.7292   75.4237 C   0  0  0  0  0  0  0  0  0  0  0  0
   -4.9661   28.3419   74.4215 C   0  0  0  0  0  0  0  0  0  0  0  0
   -6.1917   28.6035   74.5652 O   0  0  0  0  0  0  0  0  0  0  0  0
   -4.6057   27.6576   73.2524 O   0  0  0  0  0  0  0  0  0  0  0  0
   -3.9797   28.1107   76.6794 C   0  0  0  0  0  0  0  0  0  0  0  0
   -5.0019   27.1205   76.9181 C   0  0  0  0  0  0  0  0  0  0  0  0
   -5.4488   26.8010   78.0495 O   0  0  0  0  0  0  0  0  0  0  0  0
   -5.5752   26.4289   75.8360 O   0  0  0  0  0  0  0  0  0  0  0  0
   -3.0192   28.4664   77.6304 C   0  0  0  0  0  0  0  0  0  0  0  0
   -3.0183   27.8187   78.9397 C   0  0  0  0  0  0  0  0  0  0  0  0
   -3.1066   26.5637   79.0854 O   0  0  0  0  0  0  0  0  0  0  0  0
   -2.9209   28.5460   80.1334 O   0  0  0  0  0  0  0  0  0  0  0  0
   -2.0572   29.4281   77.3187 C   0  0  0  0  0  0  0  0  0  0  0  0
   -1.0294   29.8202   78.2705 C   0  0  0  0  0  0  0  0  0  0  0  0
   -0.5058   30.9869   78.2709 O   0  0  0  0  0  0  0  0  0  0  0  0
   -0.5307   28.9637   79.2536 O   0  0  0  0  0  0  0  0  0  0  0  0
   -2.0415   30.0433   76.0616 C   0  0  0  0  0  0  0  0  0  0  0  0
   -1.0298   31.0397   75.7106 C   0  0  0  0  0  0  0  0  0  0  0  0
   -1.3484   32.1920   75.2586 O   0  0  0  0  0  0  0  0  0  0  0  0
    0.3340   30.8131   75.8378 O   0  0  0  0  0  0  0  0  0  0  0  0
  1  2  2  0
  2  3  1  0
  2  4  1  0
  4  5  2  0
  5  6  1  0
  6  7  2  0
  6  8  1  0
  5  9  1  0
  9 10  1  0
 10 11  2  0
 10 12  1  0
  9 13  2  0
 13 14  1  0
 14 15  2  0
 14 16  1  0
 13 17  1  0
 17 18  1  0
 18 19  2  0
 18 20  1  0
 17 21  2  0
 21 22  1  0
 22 23  2  0
 22 24  1  0
 21  4  1  0
M  CHG  6   3  -1   8  -1  12  -1  16  -1  20  -1  24  -1
M  END
>  <shape_align_shape_tanimoto>  (1) 
0.45733843725990997

>  <shape_align_color_tanimoto>  (1) 
0.051820587429749883

>  <metric>  (1) 
shape

>  <metric_score>  (1) 
0.457

>  <template_pid>  (1) 
1BQ4

>  <template_shape_score>  (1) 
0.457

>  <template_color_score>  (1) 
0.052

>  <template_combo_score>  (1) 
0.255

$$$$
1BQ4_color_pose
     RDKit          3D

 24 24  0  0  0  0  0  0  0  0999 V2000
   -2.3979   27.0632   79.3935 O   0  0  0  0  0  0  0  0  0  0  0  0
   -3.2832   27.8260   78.9094 C   0  0  0  0  0  0  0  0  0  0  0  0
   -4.4230   27.9923   79.7170 O   0  0  0  0  0  0  0  0  0  0  0  0
   -3.1467   28.4884   77.6187 C   0  0  0  0  0  0  0  0  0  0  0  0
   -4.0488   28.1315   76.6370 C   0  0  0  0  0  0  0  0  0  0  0  0
   -5.0908   27.1312   76.8328 C   0  0  0  0  0  0  0  0  0  0  0  0
   -5.1621   26.3728   77.8210 O   0  0  0  0  0  0  0  0  0  0  0  0
   -6.1009   26.9788   75.8692 O   0  0  0  0  0  0  0  0  0  0  0  0
   -3.9531   28.7544   75.3882 C   0  0  0  0  0  0  0  0  0  0  0  0
   -4.9135   28.3694   74.3331 C   0  0  0  0  0  0  0  0  0  0  0  0
   -4.7642   27.3226   73.6501 O   0  0  0  0  0  0  0  0  0  0  0  0
   -6.0359   29.1713   74.0593 O   0  0  0  0  0  0  0  0  0  0  0  0
   -2.9698   29.7090   75.1488 C   0  0  0  0  0  0  0  0  0  0  0  0
   -2.9369   30.2989   73.8165 C   0  0  0  0  0  0  0  0  0  0  0  0
   -3.7934   29.9578   72.9633 O   0  0  0  0  0  0  0  0  0  0  0  0
   -1.9977   31.2372   73.4149 O   0  0  0  0  0  0  0  0  0  0  0  0
   -2.0622   30.0652   76.1439 C   0  0  0  0  0  0  0  0  0  0  0  0
   -1.0847   31.0683   75.8098 C   0  0  0  0  0  0  0  0  0  0  0  0
    0.1386   30.8483   75.6123 O   0  0  0  0  0  0  0  0  0  0  0  0
   -1.4758   32.4165   75.6829 O   0  0  0  0  0  0  0  0  0  0  0  0
   -2.1556   29.4485   77.3844 C   0  0  0  0  0  0  0  0  0  0  0  0
   -1.2166   29.8349   78.4278 C   0  0  0  0  0  0  0  0  0  0  0  0
   -0.3008   30.6512   78.1633 O   0  0  0  0  0  0  0  0  0  0  0  0
   -1.2626   29.3544   79.7270 O   0  0  0  0  0  0  0  0  0  0  0  0
  1  2  2  0
  2  3  1  0
  2  4  1  0
  4  5  2  0
  5  6  1  0
  6  7  2  0
  6  8  1  0
  5  9  1  0
  9 10  1  0
 10 11  2  0
 10 12  1  0
  9 13  2  0
 13 14  1  0
 14 15  2  0
 14 16  1  0
 13 17  1  0
 17 18  1  0
 18 19  2  0
 18 20  1  0
 17 21  2  0
 21 22  1  0
 22 23  2  0
 22 24  1  0
 21  4  1  0
M  CHG  6   3  -1   8  -1  12  -1  16  -1  20  -1  24  -1
M  END
>  <shape_align_shape_tanimoto>  (2) 
0.45316832538329482

>  <shape_align_color_tanimoto>  (2) 
0.059217342278007644

>  <metric>  (2) 
color

>  <metric_score>  (2) 
0.059

>  <template_pid>  (2) 
1BQ4

>  <template_shape_score>  (2) 
0.453

>  <template_color_score>  (2) 
0.059

>  <template_combo_score>  (2) 
0.256

$$$$
1BQ4_combo_pose
     RDKit          3D

 24 24  0  0  0  0  0  0  0  0999 V2000
   -1.3784   32.2548   75.4973 O   0  0  0  0  0  0  0  0  0  0  0  0
   -1.0832   31.0559   75.7850 C   0  0  0  0  0  0  0  0  0  0  0  0
    0.2985   30.7838   75.8026 O   0  0  0  0  0  0  0  0  0  0  0  0
   -2.0788   30.0369   76.0730 C   0  0  0  0  0  0  0  0  0  0  0  0
   -3.0196   29.7109   75.1026 C   0  0  0  0  0  0  0  0  0  0  0  0
   -3.0534   30.3107   73.7864 C   0  0  0  0  0  0  0  0  0  0  0  0
   -4.0374   30.1105   72.9888 O   0  0  0  0  0  0  0  0  0  0  0  0
   -2.0566   31.1335   73.2739 O   0  0  0  0  0  0  0  0  0  0  0  0
   -3.9702   28.7519   75.3898 C   0  0  0  0  0  0  0  0  0  0  0  0
   -4.9713   28.4085   74.3542 C   0  0  0  0  0  0  0  0  0  0  0  0
   -6.0717   29.0584   74.2863 O   0  0  0  0  0  0  0  0  0  0  0  0
   -4.7285   27.3738   73.4403 O   0  0  0  0  0  0  0  0  0  0  0  0
   -4.0460   28.0871   76.5963 C   0  0  0  0  0  0  0  0  0  0  0  0
   -5.0881   27.1071   76.7882 C   0  0  0  0  0  0  0  0  0  0  0  0
   -5.3624   26.5639   77.8991 O   0  0  0  0  0  0  0  0  0  0  0  0
   -5.8719   26.6972   75.7146 O   0  0  0  0  0  0  0  0  0  0  0  0
   -3.1109   28.4122   77.5565 C   0  0  0  0  0  0  0  0  0  0  0  0
   -3.1218   27.7379   78.8510 C   0  0  0  0  0  0  0  0  0  0  0  0
   -3.0136   26.4671   78.9526 O   0  0  0  0  0  0  0  0  0  0  0  0
   -3.2504   28.4133   80.0580 O   0  0  0  0  0  0  0  0  0  0  0  0
   -2.1263   29.3798   77.3118 C   0  0  0  0  0  0  0  0  0  0  0  0
   -1.1258   29.7250   78.3144 C   0  0  0  0  0  0  0  0  0  0  0  0
   -0.4783   30.8275   78.2731 O   0  0  0  0  0  0  0  0  0  0  0  0
   -0.7966   28.8965   79.3812 O   0  0  0  0  0  0  0  0  0  0  0  0
  1  2  2  0
  2  3  1  0
  2  4  1  0
  4  5  2  0
  5  6  1  0
  6  7  2  0
  6  8  1  0
  5  9  1  0
  9 10  1  0
 10 11  2  0
 10 12  1  0
  9 13  2  0
 13 14  1  0
 14 15  2  0
 14 16  1  0
 13 17  1  0
 17 18  1  0
 18 19  2  0
 18 20  1  0
 17 21  2  0
 21 22  1  0
 22 23  2  0
 22 24  1  0
 21  4  1  0
M  CHG  6   3  -1   8  -1  12  -1  16  -1  20  -1  24  -1
M  END
>  <shape_align_shape_tanimoto>  (3) 
0.45702091144169726

>  <shape_align_color_tanimoto>  (3) 
0.058073165624537917

>  <metric>  (3) 
combo

>  <metric_score>  (3) 
0.258

>  <template_pid>  (3) 
1BQ4

>  <template_shape_score>  (3) 
0.457

>  <template_color_score>  (3) 
0.058

>  <template_combo_score>  (3) 
0.258

$$$$
