6I41_shape_pose
     RDKit          3D

 47 47  0  0  0  0  0  0  0  0999 V2000
  -17.1666   -3.2259  -10.8276 C   0  0  0  0  0  0  0  0  0  0  0  0
  -18.0496   -4.1392  -11.6617 C   0  0  2  0  0  0  0  0  0  0  0  0
  -18.4953   -5.2577  -10.8823 N   0  0  0  0  0  0  0  0  0  0  0  0
  -17.3849   -4.5366  -12.9356 C   0  0  0  0  0  0  0  0  0  0  0  0
  -17.2609   -5.7416  -13.2207 O   0  0  0  0  0  0  0  0  0  0  0  0
  -16.9209   -3.4758  -13.7692 N   0  0  0  0  0  0  0  0  0  0  0  0
  -16.2638   -3.6828  -15.0233 C   0  0  1  0  0  0  0  0  0  0  0  0
  -17.1380   -3.0863  -16.1117 C   0  0  0  0  0  0  0  0  0  0  0  0
  -14.9355   -3.0085  -15.1326 C   0  0  0  0  0  0  0  0  0  0  0  0
  -14.3441   -3.1744  -16.2429 O   0  0  0  0  0  0  0  0  0  0  0  0
  -14.4266   -2.2586  -14.0536 N   0  0  0  0  0  0  0  0  0  0  0  0
  -13.2164   -1.5384  -13.9635 C   0  0  1  0  0  0  0  0  0  0  0  0
  -12.0686   -2.1070  -13.2632 C   0  0  0  0  0  0  0  0  0  0  0  0
  -11.5043   -3.3627  -13.7279 C   0  0  0  0  0  0  0  0  0  0  0  0
  -11.8753   -4.0583  -14.6835 O   0  0  0  0  0  0  0  0  0  0  0  0
  -10.3923   -3.8634  -13.0070 O   0  0  0  0  0  0  0  0  0  0  0  0
  -12.7642   -0.8392  -15.2184 C   0  0  0  0  0  0  0  0  0  0  0  0
  -11.5462   -0.5266  -15.3530 O   0  0  0  0  0  0  0  0  0  0  0  0
  -13.6334   -0.4949  -16.2757 N   0  0  0  0  0  0  0  0  0  0  0  0
  -13.1301    0.1761  -17.4786 C   0  0  2  0  0  0  0  0  0  0  0  0
  -13.7289    1.5254  -17.6541 C   0  0  0  0  0  0  0  0  0  0  0  0
  -13.4335    2.2620  -18.6353 O   0  0  0  0  0  0  0  0  0  0  0  0
  -14.6527    1.9513  -16.6635 N   0  0  0  0  0  0  0  0  0  0  0  0
  -15.3088    3.2783  -16.7430 C   0  0  2  0  0  0  0  0  0  0  0  0
  -15.0027    3.9942  -15.5027 C   0  0  0  0  0  0  0  0  0  0  0  0
  -14.3080    3.3680  -14.6306 O   0  0  0  0  0  0  0  0  0  0  0  0
  -15.3946    5.3037  -15.1704 N   0  0  0  0  0  0  0  0  0  0  0  0
  -14.9962    5.8921  -13.8472 C   0  0  2  0  0  0  0  0  0  0  0  0
  -16.1936    6.1939  -13.0887 C   0  0  0  0  0  0  0  0  0  0  0  0
  -17.3092    6.1187  -13.7327 O   0  0  0  0  0  0  0  0  0  0  0  0
  -16.3466    6.5626  -11.7239 N   0  0  0  0  0  0  0  0  0  0  0  0
  -17.7293    6.8481  -11.2479 C   0  0  0  0  0  0  0  0  0  0  0  0
  -17.4657    7.6560  -10.0087 C   0  0  0  0  0  0  0  0  0  0  0  0
  -16.1820    7.1223   -9.4480 C   0  0  0  0  0  0  0  0  0  0  0  0
  -15.4069    6.6972  -10.6560 C   0  0  1  0  0  0  0  0  0  0  0  0
  -14.7239    5.3934  -10.3475 C   0  0  0  0  0  0  0  0  0  0  0  0
  -15.1017    4.3093  -10.8595 O   0  0  0  0  0  0  0  0  0  0  0  0
  -13.6509    5.4819   -9.4599 O   0  0  0  0  0  0  0  0  0  0  0  0
  -14.1510    7.0814  -14.2457 C   0  0  1  0  0  0  0  0  0  0  0  0
  -14.8933    7.9592  -15.2373 C   0  0  0  0  0  0  0  0  0  0  0  0
  -13.6340    7.8060  -13.2191 O   0  0  0  0  0  0  0  0  0  0  0  0
  -16.7988    3.0077  -16.9484 C   0  0  1  0  0  0  0  0  0  0  0  0
  -17.5876    4.2683  -17.2255 C   0  0  0  0  0  0  0  0  0  0  0  0
  -16.9069    2.2591  -18.1508 O   0  0  0  0  0  0  0  0  0  0  0  0
  -13.3514   -0.6963  -18.6911 C   0  0  1  0  0  0  0  0  0  0  0  0
  -12.7935   -0.0217  -19.9018 C   0  0  0  0  0  0  0  0  0  0  0  0
  -12.6713   -1.8972  -18.5151 O   0  0  0  0  0  0  0  0  0  0  0  0
  2  1  1  1
  2  3  1  0
  2  4  1  0
  4  5  2  0
  4  6  1  0
  6  7  1  0
  7  8  1  6
  7  9  1  0
  9 10  2  0
  9 11  1  0
 11 12  1  0
 12 13  1  6
 13 14  1  0
 14 15  2  0
 14 16  1  0
 12 17  1  0
 17 18  2  0
 17 19  1  0
 20 19  1  1
 20 21  1  0
 21 22  2  0
 21 23  1  0
 24 23  1  1
 24 25  1  0
 25 26  2  0
 25 27  1  0
 28 27  1  6
 28 29  1  0
 29 30  2  0
 29 31  1  0
 31 32  1  0
 32 33  1  0
 33 34  1  0
 34 35  1  0
 35 36  1  1
 36 37  2  0
 36 38  1  0
 28 39  1  0
 39 40  1  1
 39 41  1  0
 24 42  1  0
 42 43  1  6
 42 44  1  0
 20 45  1  0
 45 46  1  6
 45 47  1  0
 35 31  1  0
M  CHG  3   3   1  16  -1  38  -1
M  END
>  <shape_align_shape_tanimoto>  (1) 
0.54963575669544806

>  <shape_align_color_tanimoto>  (1) 
0.020201530436814299

>  <metric>  (1) 
shape

>  <metric_score>  (1) 
0.550

>  <template_pid>  (1) 
6I41

>  <template_shape_score>  (1) 
0.550

>  <template_color_score>  (1) 
0.020

>  <template_combo_score>  (1) 
0.285

$$$$
6I41_color_pose
     RDKit          3D

 47 47  0  0  0  0  0  0  0  0999 V2000
  -14.1843   11.0418   -5.3293 C   0  0  0  0  0  0  0  0  0  0  0  0
  -15.0152    9.7720   -5.4908 C   0  0  2  0  0  0  0  0  0  0  0  0
  -14.3502    8.6587   -4.8370 N   0  0  0  0  0  0  0  0  0  0  0  0
  -15.1110    9.4975   -6.9660 C   0  0  0  0  0  0  0  0  0  0  0  0
  -14.5871    8.4180   -7.3778 O   0  0  0  0  0  0  0  0  0  0  0  0
  -15.7452   10.3779   -7.8712 N   0  0  0  0  0  0  0  0  0  0  0  0
  -15.7763   10.0150   -9.2602 C   0  0  1  0  0  0  0  0  0  0  0  0
  -14.3918    9.9678   -9.8515 C   0  0  0  0  0  0  0  0  0  0  0  0
  -16.4810    8.6888   -9.4214 C   0  0  0  0  0  0  0  0  0  0  0  0
  -16.9648    8.1161   -8.4099 O   0  0  0  0  0  0  0  0  0  0  0  0
  -16.5518    8.1679  -10.7218 N   0  0  0  0  0  0  0  0  0  0  0  0
  -17.1793    6.9131  -11.0892 C   0  0  1  0  0  0  0  0  0  0  0  0
  -18.2847    7.2419  -12.0847 C   0  0  0  0  0  0  0  0  0  0  0  0
  -17.7850    7.8946  -13.2993 C   0  0  0  0  0  0  0  0  0  0  0  0
  -17.4404    9.0974  -13.3943 O   0  0  0  0  0  0  0  0  0  0  0  0
  -17.6713    7.1280  -14.4785 O   0  0  0  0  0  0  0  0  0  0  0  0
  -16.1897    6.0144  -11.7595 C   0  0  0  0  0  0  0  0  0  0  0  0
  -15.0175    6.5059  -11.8678 O   0  0  0  0  0  0  0  0  0  0  0  0
  -16.5126    4.7180  -12.2416 N   0  0  0  0  0  0  0  0  0  0  0  0
  -15.4439    3.9708  -12.8696 C   0  0  2  0  0  0  0  0  0  0  0  0
  -15.8135    3.5134  -14.2399 C   0  0  0  0  0  0  0  0  0  0  0  0
  -16.9689    3.6454  -14.7193 O   0  0  0  0  0  0  0  0  0  0  0  0
  -14.7960    2.9131  -15.0105 N   0  0  0  0  0  0  0  0  0  0  0  0
  -15.0263    2.4195  -16.3875 C   0  0  2  0  0  0  0  0  0  0  0  0
  -14.1708    1.2597  -16.5586 C   0  0  0  0  0  0  0  0  0  0  0  0
  -13.3888    0.9633  -15.5849 O   0  0  0  0  0  0  0  0  0  0  0  0
  -14.1029    0.4105  -17.7065 N   0  0  0  0  0  0  0  0  0  0  0  0
  -13.1495   -0.6640  -17.6708 C   0  0  2  0  0  0  0  0  0  0  0  0
  -13.1575   -1.5392  -16.5020 C   0  0  0  0  0  0  0  0  0  0  0  0
  -12.0574   -2.1620  -16.2652 O   0  0  0  0  0  0  0  0  0  0  0  0
  -14.2282   -1.7787  -15.6168 N   0  0  0  0  0  0  0  0  0  0  0  0
  -15.6080   -1.3488  -15.6005 C   0  0  0  0  0  0  0  0  0  0  0  0
  -16.3098   -2.7112  -15.3954 C   0  0  0  0  0  0  0  0  0  0  0  0
  -15.2555   -3.6006  -14.7438 C   0  0  0  0  0  0  0  0  0  0  0  0
  -14.1260   -2.6132  -14.4004 C   0  0  1  0  0  0  0  0  0  0  0  0
  -12.8194   -3.2648  -14.2667 C   0  0  0  0  0  0  0  0  0  0  0  0
  -12.6199   -4.4332  -14.6395 O   0  0  0  0  0  0  0  0  0  0  0  0
  -11.7858   -2.5127  -13.6927 O   0  0  0  0  0  0  0  0  0  0  0  0
  -11.7772   -0.3168  -18.1409 C   0  0  1  0  0  0  0  0  0  0  0  0
  -11.1333    0.8442  -17.4554 C   0  0  0  0  0  0  0  0  0  0  0  0
  -10.9491   -1.4374  -18.0403 O   0  0  0  0  0  0  0  0  0  0  0  0
  -14.6378    3.5585  -17.3450 C   0  0  1  0  0  0  0  0  0  0  0  0
  -14.9941    3.2492  -18.7641 C   0  0  0  0  0  0  0  0  0  0  0  0
  -15.4901    4.6220  -16.9576 O   0  0  0  0  0  0  0  0  0  0  0  0
  -15.1538    2.7801  -11.9637 C   0  0  1  0  0  0  0  0  0  0  0  0
  -16.3988    1.9586  -11.7207 C   0  0  0  0  0  0  0  0  0  0  0  0
  -14.1379    1.9714  -12.4565 O   0  0  0  0  0  0  0  0  0  0  0  0
  2  1  1  6
  2  3  1  0
  2  4  1  0
  4  5  2  0
  4  6  1  0
  6  7  1  0
  7  8  1  1
  7  9  1  0
  9 10  2  0
  9 11  1  0
 11 12  1  0
 12 13  1  6
 13 14  1  0
 14 15  2  0
 14 16  1  0
 12 17  1  0
 17 18  2  0
 17 19  1  0
 20 19  1  1
 20 21  1  0
 21 22  2  0
 21 23  1  0
 24 23  1  1
 24 25  1  0
 25 26  2  0
 25 27  1  0
 28 27  1  1
 28 29  1  0
 29 30  2  0
 29 31  1  0
 31 32  1  0
 32 33  1  0
 33 34  1  0
 34 35  1  0
 35 36  1  6
 36 37  2  0
 36 38  1  0
 28 39  1  0
 39 40  1  1
 39 41  1  0
 24 42  1  0
 42 43  1  6
 42 44  1  0
 20 45  1  0
 45 46  1  6
 45 47  1  0
 35 31  1  0
M  CHG  3   3   1  16  -1  38  -1
M  END
>  <shape_align_shape_tanimoto>  (2) 
0.43118963531462318

>  <shape_align_color_tanimoto>  (2) 
0.08438795548934909

>  <metric>  (2) 
color

>  <metric_score>  (2) 
0.084

>  <template_pid>  (2) 
6I41

>  <template_shape_score>  (2) 
0.431

>  <template_color_score>  (2) 
0.084

>  <template_combo_score>  (2) 
0.258

$$$$
6I41_combo_pose
     RDKit          3D

 47 47  0  0  0  0  0  0  0  0999 V2000
  -16.9868    2.6901   -7.6118 C   0  0  0  0  0  0  0  0  0  0  0  0
  -16.1773    3.3431   -8.7003 C   0  0  2  0  0  0  0  0  0  0  0  0
  -14.7911    3.4368   -8.3858 N   0  0  0  0  0  0  0  0  0  0  0  0
  -16.7979    4.5847   -9.1927 C   0  0  0  0  0  0  0  0  0  0  0  0
  -18.0777    4.5184   -9.3482 O   0  0  0  0  0  0  0  0  0  0  0  0
  -16.1366    5.7845   -9.4986 N   0  0  0  0  0  0  0  0  0  0  0  0
  -16.9428    6.9003   -9.9702 C   0  0  1  0  0  0  0  0  0  0  0  0
  -16.6561    8.1567   -9.2059 C   0  0  0  0  0  0  0  0  0  0  0  0
  -16.7860    7.1409  -11.4331 C   0  0  0  0  0  0  0  0  0  0  0  0
  -17.5061    8.0367  -11.9791 O   0  0  0  0  0  0  0  0  0  0  0  0
  -15.8488    6.3609  -12.1438 N   0  0  0  0  0  0  0  0  0  0  0  0
  -15.7057    6.5957  -13.6590 C   0  0  1  0  0  0  0  0  0  0  0  0
  -14.4480    7.4112  -13.7933 C   0  0  0  0  0  0  0  0  0  0  0  0
  -14.1492    7.8191  -15.1485 C   0  0  0  0  0  0  0  0  0  0  0  0
  -14.8341    7.7231  -16.1814 O   0  0  0  0  0  0  0  0  0  0  0  0
  -12.8760    8.4290  -15.3548 O   0  0  0  0  0  0  0  0  0  0  0  0
  -15.6465    5.2378  -14.2090 C   0  0  0  0  0  0  0  0  0  0  0  0
  -15.4990    4.3131  -13.2997 O   0  0  0  0  0  0  0  0  0  0  0  0
  -15.7207    4.7573  -15.5178 N   0  0  0  0  0  0  0  0  0  0  0  0
  -15.6195    3.3626  -15.7583 C   0  0  2  0  0  0  0  0  0  0  0  0
  -14.5511    2.9442  -16.7154 C   0  0  0  0  0  0  0  0  0  0  0  0
  -14.0519    3.8446  -17.4153 O   0  0  0  0  0  0  0  0  0  0  0  0
  -14.2064    1.5819  -16.7358 N   0  0  0  0  0  0  0  0  0  0  0  0
  -13.2776    0.8728  -17.5201 C   0  0  2  0  0  0  0  0  0  0  0  0
  -12.9193   -0.4686  -17.0260 C   0  0  0  0  0  0  0  0  0  0  0  0
  -12.2015   -1.1698  -17.7834 O   0  0  0  0  0  0  0  0  0  0  0  0
  -13.2998   -1.0192  -15.7887 N   0  0  0  0  0  0  0  0  0  0  0  0
  -12.9286   -2.3247  -15.2930 C   0  0  2  0  0  0  0  0  0  0  0  0
  -14.0457   -3.0642  -14.7460 C   0  0  0  0  0  0  0  0  0  0  0  0
  -13.7515   -4.1352  -14.0926 O   0  0  0  0  0  0  0  0  0  0  0  0
  -15.4271   -2.7526  -14.8418 N   0  0  0  0  0  0  0  0  0  0  0  0
  -16.0596   -1.6697  -15.5842 C   0  0  0  0  0  0  0  0  0  0  0  0
  -17.3739   -2.3035  -16.0313 C   0  0  0  0  0  0  0  0  0  0  0  0
  -17.8155   -2.9198  -14.7410 C   0  0  0  0  0  0  0  0  0  0  0  0
  -16.5082   -3.4347  -14.1726 C   0  0  1  0  0  0  0  0  0  0  0  0
  -16.4755   -4.9043  -14.2331 C   0  0  0  0  0  0  0  0  0  0  0  0
  -15.7527   -5.6247  -13.5034 O   0  0  0  0  0  0  0  0  0  0  0  0
  -17.2883   -5.5785  -15.1507 O   0  0  0  0  0  0  0  0  0  0  0  0
  -11.9436   -2.0983  -14.1239 C   0  0  1  0  0  0  0  0  0  0  0  0
  -11.4169   -3.3804  -13.5578 C   0  0  0  0  0  0  0  0  0  0  0  0
  -10.8557   -1.3917  -14.6833 O   0  0  0  0  0  0  0  0  0  0  0  0
  -12.0088    1.6528  -17.9036 C   0  0  1  0  0  0  0  0  0  0  0  0
  -11.0809    0.7997  -18.7294 C   0  0  0  0  0  0  0  0  0  0  0  0
  -12.3392    2.7390  -18.7118 O   0  0  0  0  0  0  0  0  0  0  0  0
  -16.9719    2.9129  -16.3605 C   0  0  1  0  0  0  0  0  0  0  0  0
  -18.0551    3.2623  -15.4028 C   0  0  0  0  0  0  0  0  0  0  0  0
  -17.0933    3.6859  -17.5257 O   0  0  0  0  0  0  0  0  0  0  0  0
  2  1  1  1
  2  3  1  0
  2  4  1  0
  4  5  2  0
  4  6  1  0
  6  7  1  0
  7  8  1  1
  7  9  1  0
  9 10  2  0
  9 11  1  0
 11 12  1  0
 12 13  1  1
 13 14  1  0
 14 15  2  0
 14 16  1  0
 12 17  1  0
 17 18  2  0
 17 19  1  0
 20 19  1  6
 20 21  1  0
 21 22  2  0
 21 23  1  0
 24 23  1  1
 24 25  1  0
 25 26  2  0
 25 27  1  0
 28 27  1  1
 28 29  1  0
 29 30  2  0
 29 31  1  0
 31 32  1  0
 32 33  1  0
 33 34  1  0
 34 35  1  0
 35 36  1  6
 36 37  2  0
 36 38  1  0
 28 39  1  0
 39 40  1  6
 39 41  1  0
 24 42  1  0
 42 43  1  6
 42 44  1  0
 20 45  1  0
 45 46  1  1
 45 47  1  0
 35 31  1  0
M  CHG  3   3   1  16  -1  38  -1
M  END
>  <shape_align_shape_tanimoto>  (3) 
0.54142257549441319

>  <shape_align_color_tanimoto>  (3) 
0.031441894635769484

>  <metric>  (3) 
combo

>  <metric_score>  (3) 
0.286

>  <template_pid>  (3) 
6I41

>  <template_shape_score>  (3) 
0.541

>  <template_color_score>  (3) 
0.031

>  <template_combo_score>  (3) 
0.286

$$$$
