6EEB_shape_pose
     RDKit          3D

 27 32  0  0  0  0  0  0  0  0999 V2000
    8.3069    5.8508    4.1348 C   0  0  0  0  0  0  0  0  0  0  0  0
    9.4350    6.8921    4.1049 C   0  0  0  0  0  0  0  0  0  0  0  0
   10.4354    6.4136    5.1181 C   0  0  0  0  0  0  0  0  0  0  0  0
    8.8137    8.1485    4.5891 C   0  0  0  0  0  0  0  0  0  0  0  0
    8.7802    8.7061    5.8355 N   0  0  0  0  0  0  0  0  0  0  0  0
    8.0899    9.8617    5.7980 C   0  0  0  0  0  0  0  0  0  0  0  0
    7.7526   10.8154    6.7485 C   0  0  0  0  0  0  0  0  0  0  0  0
    7.0152   11.9389    6.4322 C   0  0  0  0  0  0  0  0  0  0  0  0
    6.6020   13.1328    7.6600 Cl  0  0  0  0  0  0  0  0  0  0  0  0
    6.5863   12.1392    5.1196 C   0  0  0  0  0  0  0  0  0  0  0  0
    5.6489   13.5494    4.6727 Cl  0  0  0  0  0  0  0  0  0  0  0  0
    6.9090   11.2034    4.1522 C   0  0  0  0  0  0  0  0  0  0  0  0
    7.6461   10.0936    4.5013 C   0  0  0  0  0  0  0  0  0  0  0  0
    8.1107    9.0154    3.7781 C   0  0  0  0  0  0  0  0  0  0  0  0
    8.0143    8.6047    2.3287 C   0  0  0  0  0  0  0  0  0  0  0  0
    9.3855    8.2038    1.9517 C   0  0  1  0  0  0  0  0  0  0  0  0
   10.3149    9.4133    2.0480 C   0  0  0  0  0  0  0  0  0  0  0  0
   11.6712    9.1490    1.7791 N   0  0  2  0  0  0  0  0  0  0  0  0
   12.2466    9.7652    0.6165 C   0  0  0  0  0  0  0  0  0  0  0  0
   13.5218    8.9661    0.5340 C   0  0  0  0  0  0  0  0  0  0  0  0
   13.2492    7.7309    1.0109 C   0  0  0  0  0  0  0  0  0  0  0  0
   11.8388    7.7339    1.3898 C   0  0  1  0  0  0  0  0  0  0  0  0
   11.4648    6.9763    2.6177 C   0  0  0  0  0  0  0  0  0  0  0  0
    9.9456    7.0272    2.7284 C   0  0  1  0  0  0  0  0  0  0  0  0
   10.9111    7.4558    0.2250 C   0  0  0  0  0  0  0  0  0  0  0  0
   11.2766    6.9940   -0.8543 O   0  0  0  0  0  0  0  0  0  0  0  0
    9.5342    7.8010    0.5371 N   0  0  0  0  0  0  0  0  0  0  0  0
  1  2  1  0
  2  3  1  0
  2  4  1  0
  4  5  1  0
  5  6  1  0
  6  7  2  0
  7  8  1  0
  8  9  1  0
  8 10  2  0
 10 11  1  0
 10 12  1  0
 12 13  2  0
 13 14  1  0
 14 15  1  0
 16 15  1  1
 16 17  1  0
 17 18  1  0
 18 19  1  6
 19 20  1  0
 20 21  2  0
 22 21  1  6
 22 23  1  0
 23 24  1  0
 22 25  1  0
 25 26  2  0
 25 27  1  0
 24  2  1  1
 14  4  2  0
 24 16  1  0
 13  6  1  0
 27 16  1  0
 22 18  1  0
M  CHG  1  18   1
M  END
>  <shape_align_shape_tanimoto>  (1) 
0.23463125241766705

>  <shape_align_color_tanimoto>  (1) 
0.030678002316729826

>  <metric>  (1) 
shape

>  <metric_score>  (1) 
0.235

>  <template_pid>  (1) 
6EEB

>  <template_shape_score>  (1) 
0.235

>  <template_color_score>  (1) 
0.031

>  <template_combo_score>  (1) 
0.133

$$$$
6EEB_color_pose
     RDKit          3D

 27 32  0  0  0  0  0  0  0  0999 V2000
   10.8122    6.9063    4.5276 C   0  0  0  0  0  0  0  0  0  0  0  0
    9.6056    7.2529    3.6788 C   0  0  0  0  0  0  0  0  0  0  0  0
    8.6652    6.0473    3.8340 C   0  0  0  0  0  0  0  0  0  0  0  0
    8.8860    8.3750    4.3260 C   0  0  0  0  0  0  0  0  0  0  0  0
    8.8263    8.7572    5.6144 N   0  0  0  0  0  0  0  0  0  0  0  0
    8.0437    9.8408    5.7596 C   0  0  0  0  0  0  0  0  0  0  0  0
    7.6383   10.6331    6.8197 C   0  0  0  0  0  0  0  0  0  0  0  0
    6.7921   11.7249    6.6364 C   0  0  0  0  0  0  0  0  0  0  0  0
    6.2796   12.7286    7.9855 Cl  0  0  0  0  0  0  0  0  0  0  0  0
    6.3240   12.0593    5.3851 C   0  0  0  0  0  0  0  0  0  0  0  0
    5.2619   13.4148    5.0913 Cl  0  0  0  0  0  0  0  0  0  0  0  0
    6.7258   11.2698    4.3160 C   0  0  0  0  0  0  0  0  0  0  0  0
    7.5520   10.2057    4.5032 C   0  0  0  0  0  0  0  0  0  0  0  0
    8.0954    9.2753    3.6432 C   0  0  0  0  0  0  0  0  0  0  0  0
    8.0074    9.0489    2.1527 C   0  0  0  0  0  0  0  0  0  0  0  0
    9.4044    8.8396    1.7181 C   0  0  1  0  0  0  0  0  0  0  0  0
   10.3138   10.0070    2.0275 C   0  0  0  0  0  0  0  0  0  0  0  0
   11.6822    9.6389    1.9169 N   0  0  2  0  0  0  0  0  0  0  0  0
   12.5373   10.6311    1.2974 C   0  0  0  0  0  0  0  0  0  0  0  0
   13.6902    9.7768    0.8796 C   0  0  0  0  0  0  0  0  0  0  0  0
   13.2779    8.4982    0.7566 C   0  0  0  0  0  0  0  0  0  0  0  0
   11.8643    8.4891    1.0873 C   0  0  1  0  0  0  0  0  0  0  0  0
   11.4054    7.3100    1.9339 C   0  0  0  0  0  0  0  0  0  0  0  0
    9.9515    7.5357    2.2614 C   0  0  1  0  0  0  0  0  0  0  0  0
   10.9525    8.5269   -0.1191 C   0  0  0  0  0  0  0  0  0  0  0  0
   11.3481    8.4395   -1.2874 O   0  0  0  0  0  0  0  0  0  0  0  0
    9.5587    8.6778    0.2531 N   0  0  0  0  0  0  0  0  0  0  0  0
  1  2  1  0
  2  3  1  0
  2  4  1  0
  4  5  1  0
  5  6  1  0
  6  7  2  0
  7  8  1  0
  8  9  1  0
  8 10  2  0
 10 11  1  0
 10 12  1  0
 12 13  2  0
 13 14  1  0
 14 15  1  0
 16 15  1  6
 16 17  1  0
 17 18  1  0
 18 19  1  6
 19 20  1  0
 20 21  2  0
 22 21  1  6
 22 23  1  0
 23 24  1  0
 22 25  1  0
 25 26  2  0
 25 27  1  0
 24  2  1  1
 14  4  2  0
 24 16  1  0
 13  6  1  0
 27 16  1  0
 22 18  1  0
M  CHG  1  18   1
M  END
>  <shape_align_shape_tanimoto>  (2) 
0.22812881221295972

>  <shape_align_color_tanimoto>  (2) 
0.043635000392405886

>  <metric>  (2) 
color

>  <metric_score>  (2) 
0.044

>  <template_pid>  (2) 
6EEB

>  <template_shape_score>  (2) 
0.228

>  <template_color_score>  (2) 
0.044

>  <template_combo_score>  (2) 
0.136

$$$$
6EEB_combo_pose
     RDKit          3D

 27 32  0  0  0  0  0  0  0  0999 V2000
   10.8122    6.9063    4.5276 C   0  0  0  0  0  0  0  0  0  0  0  0
    9.6056    7.2529    3.6788 C   0  0  0  0  0  0  0  0  0  0  0  0
    8.6652    6.0473    3.8340 C   0  0  0  0  0  0  0  0  0  0  0  0
    8.8860    8.3750    4.3260 C   0  0  0  0  0  0  0  0  0  0  0  0
    8.8263    8.7572    5.6144 N   0  0  0  0  0  0  0  0  0  0  0  0
    8.0437    9.8408    5.7596 C   0  0  0  0  0  0  0  0  0  0  0  0
    7.6383   10.6331    6.8197 C   0  0  0  0  0  0  0  0  0  0  0  0
    6.7921   11.7249    6.6364 C   0  0  0  0  0  0  0  0  0  0  0  0
    6.2796   12.7286    7.9855 Cl  0  0  0  0  0  0  0  0  0  0  0  0
    6.3240   12.0593    5.3851 C   0  0  0  0  0  0  0  0  0  0  0  0
    5.2619   13.4148    5.0913 Cl  0  0  0  0  0  0  0  0  0  0  0  0
    6.7258   11.2698    4.3160 C   0  0  0  0  0  0  0  0  0  0  0  0
    7.5520   10.2057    4.5032 C   0  0  0  0  0  0  0  0  0  0  0  0
    8.0954    9.2753    3.6432 C   0  0  0  0  0  0  0  0  0  0  0  0
    8.0074    9.0489    2.1527 C   0  0  0  0  0  0  0  0  0  0  0  0
    9.4044    8.8396    1.7181 C   0  0  1  0  0  0  0  0  0  0  0  0
   10.3138   10.0070    2.0275 C   0  0  0  0  0  0  0  0  0  0  0  0
   11.6822    9.6389    1.9169 N   0  0  2  0  0  0  0  0  0  0  0  0
   12.5373   10.6311    1.2974 C   0  0  0  0  0  0  0  0  0  0  0  0
   13.6902    9.7768    0.8796 C   0  0  0  0  0  0  0  0  0  0  0  0
   13.2779    8.4982    0.7566 C   0  0  0  0  0  0  0  0  0  0  0  0
   11.8643    8.4891    1.0873 C   0  0  1  0  0  0  0  0  0  0  0  0
   11.4054    7.3100    1.9339 C   0  0  0  0  0  0  0  0  0  0  0  0
    9.9515    7.5357    2.2614 C   0  0  1  0  0  0  0  0  0  0  0  0
   10.9525    8.5269   -0.1191 C   0  0  0  0  0  0  0  0  0  0  0  0
   11.3481    8.4395   -1.2874 O   0  0  0  0  0  0  0  0  0  0  0  0
    9.5587    8.6778    0.2531 N   0  0  0  0  0  0  0  0  0  0  0  0
  1  2  1  0
  2  3  1  0
  2  4  1  0
  4  5  1  0
  5  6  1  0
  6  7  2  0
  7  8  1  0
  8  9  1  0
  8 10  2  0
 10 11  1  0
 10 12  1  0
 12 13  2  0
 13 14  1  0
 14 15  1  0
 16 15  1  6
 16 17  1  0
 17 18  1  0
 18 19  1  6
 19 20  1  0
 20 21  2  0
 22 21  1  6
 22 23  1  0
 23 24  1  0
 22 25  1  0
 25 26  2  0
 25 27  1  0
 24  2  1  1
 14  4  2  0
 24 16  1  0
 13  6  1  0
 27 16  1  0
 22 18  1  0
M  CHG  1  18   1
M  END
>  <shape_align_shape_tanimoto>  (3) 
0.22812881221295972

>  <shape_align_color_tanimoto>  (3) 
0.043635000392405886

>  <metric>  (3) 
combo

>  <metric_score>  (3) 
0.136

>  <template_pid>  (3) 
6EEB

>  <template_shape_score>  (3) 
0.228

>  <template_color_score>  (3) 
0.044

>  <template_combo_score>  (3) 
0.136

$$$$
