6CVW_shape_pose
     RDKit          3D

 53 58  0  0  0  0  0  0  0  0999 V2000
  -13.2402   -3.3807   16.7260 C   0  0  0  0  0  0  0  0  0  0  0  0
  -13.4027   -4.2822   15.7552 C   0  0  0  0  0  0  0  0  0  0  0  0
  -13.3817   -5.7502   15.9928 C   0  0  2  0  0  0  0  0  0  0  0  0
  -12.2836   -6.3152   16.8440 C   0  0  0  0  0  0  0  0  0  0  0  0
  -12.3996   -6.6155   15.3493 C   0  0  1  0  0  0  0  0  0  0  0  0
  -12.6491   -8.0356   15.1244 N   0  0  0  0  0  0  0  0  0  0  0  0
  -12.8803   -8.5556   13.7893 C   0  0  0  0  0  0  0  0  0  0  0  0
  -12.8790   -7.8094   12.7799 O   0  0  0  0  0  0  0  0  0  0  0  0
  -13.1159   -9.9875   13.6783 C   0  0  2  0  0  0  0  0  0  0  0  0
  -12.8162  -10.5455   12.2602 C   0  0  0  0  0  0  0  0  0  0  0  0
  -13.3198  -11.9338   12.5238 C   0  0  1  0  0  0  0  0  0  0  0  0
  -12.5815  -12.4581   13.5567 O   0  0  0  0  0  0  0  0  0  0  0  0
  -12.6655  -13.5808   14.2988 C   0  0  0  0  0  0  0  0  0  0  0  0
  -13.7155  -14.4597   14.2419 N   0  0  0  0  0  0  0  0  0  0  0  0
  -13.7605  -15.5643   15.0014 C   0  0  0  0  0  0  0  0  0  0  0  0
  -14.8573  -16.3907   14.9018 C   0  0  0  0  0  0  0  0  0  0  0  0
  -14.9930  -17.5372   15.6548 C   0  0  0  0  0  0  0  0  0  0  0  0
  -16.0572  -18.3982   15.6020 O   0  0  0  0  0  0  0  0  0  0  0  0
  -17.1944  -18.2837   14.7908 C   0  0  0  0  0  0  0  0  0  0  0  0
  -13.9495  -17.8285   16.5394 C   0  0  0  0  0  0  0  0  0  0  0  0
  -12.8396  -17.0095   16.6520 C   0  0  0  0  0  0  0  0  0  0  0  0
  -12.7497  -15.8586   15.8676 C   0  0  0  0  0  0  0  0  0  0  0  0
  -11.7051  -15.0164   15.9445 N   0  0  0  0  0  0  0  0  0  0  0  0
  -11.6512  -13.8921   15.1781 C   0  0  0  0  0  0  0  0  0  0  0  0
  -10.4512  -12.9808   15.2927 C   0  0  0  0  0  0  0  0  0  0  0  0
  -14.7495  -11.5492   13.0011 C   0  0  0  0  0  0  0  0  0  0  0  0
  -14.5421  -10.3245   13.7459 N   0  0  0  0  0  0  0  0  0  0  0  0
  -15.5822   -9.5584   14.4102 C   0  0  0  0  0  0  0  0  0  0  0  0
  -15.2724   -8.6005   15.1623 O   0  0  0  0  0  0  0  0  0  0  0  0
  -16.9604   -9.9992   14.1299 C   0  0  1  0  0  0  0  0  0  0  0  0
  -17.8454   -9.6333   15.2639 N   0  0  0  0  0  0  0  0  0  0  0  0
  -18.8419  -10.5917   15.5530 C   0  0  0  0  0  0  0  0  0  0  0  0
  -18.9264  -11.6570   14.8684 O   0  0  0  0  0  0  0  0  0  0  0  0
  -19.7900  -10.4624   16.5677 O   0  0  0  0  0  0  0  0  0  0  0  0
  -20.7419  -11.4073   16.7908 C   0  0  0  0  0  0  0  0  0  0  0  0
  -20.9265  -12.0540   18.1084 C   0  0  0  0  0  0  0  0  0  0  0  0
  -21.9594  -13.1192   17.6437 C   0  0  0  0  0  0  0  0  0  0  0  0
  -22.9916  -12.1450   17.0392 C   0  0  0  0  0  0  0  0  0  0  0  0
  -22.1736  -10.9585   16.5108 C   0  0  0  0  0  0  0  0  0  0  0  0
  -17.5655   -9.1082   13.0160 C   0  0  0  0  0  0  0  0  0  0  0  0
  -18.9564   -9.5834   12.6912 C   0  0  0  0  0  0  0  0  0  0  0  0
  -16.7559   -8.9761   11.8020 C   0  0  0  0  0  0  0  0  0  0  0  0
  -17.7630   -7.6911   13.5890 C   0  0  0  0  0  0  0  0  0  0  0  0
  -11.1961   -6.0797   14.6209 C   0  0  0  0  0  0  0  0  0  0  0  0
  -11.0481   -4.8202   14.7261 O   0  0  0  0  0  0  0  0  0  0  0  0
  -10.3431   -6.9258   13.9100 N   0  0  0  0  0  0  0  0  0  0  0  0
   -8.9947   -6.1782   13.1001 S   0  0  0  0  0  0  0  0  0  0  0  0
   -9.4461   -4.8353   12.6271 O   0  0  0  0  0  0  0  0  0  0  0  0
   -8.5944   -7.0049   11.9022 O   0  0  0  0  0  0  0  0  0  0  0  0
   -7.6547   -6.0790   14.2615 C   0  0  0  0  0  0  0  0  0  0  0  0
   -7.9624   -5.3060   15.5145 C   0  0  0  0  0  0  0  0  0  0  0  0
   -6.7432   -7.2446   14.4042 C   0  0  0  0  0  0  0  0  0  0  0  0
   -6.2694   -6.0156   13.7111 C   0  0  0  0  0  0  0  0  0  0  0  0
  1  2  2  0
  3  2  1  6
  3  4  1  0
  4  5  1  0
  5  6  1  1
  6  7  1  0
  7  8  2  0
  9  7  1  6
  9 10  1  0
 10 11  1  0
 11 12  1  1
 12 13  1  0
 13 14  2  0
 14 15  1  0
 15 16  2  0
 16 17  1  0
 17 18  1  0
 18 19  1  0
 17 20  2  0
 20 21  1  0
 21 22  2  0
 22 23  1  0
 23 24  2  0
 24 25  1  0
 11 26  1  0
 26 27  1  0
 27 28  1  0
 28 29  2  0
 28 30  1  0
 30 31  1  1
 31 32  1  0
 32 33  2  0
 32 34  1  0
 34 35  1  0
 35 36  1  0
 36 37  1  0
 37 38  1  0
 38 39  1  0
 30 40  1  0
 40 41  1  0
 40 42  1  0
 40 43  1  0
  5 44  1  0
 44 45  2  0
 44 46  1  0
 46 47  1  0
 47 48  2  0
 47 49  2  0
 47 50  1  0
 50 51  1  0
 50 52  1  0
 52 53  1  0
  5  3  1  0
 27  9  1  0
 39 35  1  0
 53 50  1  0
 24 13  1  0
 22 15  1  0
M  END
>  <shape_align_shape_tanimoto>  (1) 
0.5950253721667258

>  <shape_align_color_tanimoto>  (1) 
0.069182109051112856

>  <metric>  (1) 
shape

>  <metric_score>  (1) 
0.595

>  <template_pid>  (1) 
6CVW

>  <template_shape_score>  (1) 
0.595

>  <template_color_score>  (1) 
0.069

>  <template_combo_score>  (1) 
0.332

$$$$
6CVW_color_pose
     RDKit          3D

 53 58  0  0  0  0  0  0  0  0999 V2000
  -14.0034   -3.4965   15.5134 C   0  0  0  0  0  0  0  0  0  0  0  0
  -12.8793   -4.0764   15.9122 C   0  0  0  0  0  0  0  0  0  0  0  0
  -12.9277   -5.4800   16.4567 C   0  0  2  0  0  0  0  0  0  0  0  0
  -11.7373   -6.0377   17.1513 C   0  0  0  0  0  0  0  0  0  0  0  0
  -12.1714   -6.5336   15.7959 C   0  0  1  0  0  0  0  0  0  0  0  0
  -12.7583   -7.8819   15.7787 N   0  0  0  0  0  0  0  0  0  0  0  0
  -13.3570   -8.4585   14.6330 C   0  0  0  0  0  0  0  0  0  0  0  0
  -13.4368   -7.8574   13.5230 O   0  0  0  0  0  0  0  0  0  0  0  0
  -13.9368   -9.8547   14.7254 C   0  0  2  0  0  0  0  0  0  0  0  0
  -12.7260  -10.7698   14.7474 C   0  0  0  0  0  0  0  0  0  0  0  0
  -13.1964  -11.9800   14.0050 C   0  0  1  0  0  0  0  0  0  0  0  0
  -13.8014  -12.9638   14.8318 O   0  0  0  0  0  0  0  0  0  0  0  0
  -13.2367  -14.2548   14.8927 C   0  0  0  0  0  0  0  0  0  0  0  0
  -12.1412  -14.4563   14.1355 N   0  0  0  0  0  0  0  0  0  0  0  0
  -11.5137  -15.6655   14.1184 C   0  0  0  0  0  0  0  0  0  0  0  0
  -10.3855  -15.8823   13.3420 C   0  0  0  0  0  0  0  0  0  0  0  0
   -9.7479  -17.1113   13.3264 C   0  0  0  0  0  0  0  0  0  0  0  0
   -8.6197  -17.3234   12.5496 O   0  0  0  0  0  0  0  0  0  0  0  0
   -8.1249  -16.2614   11.7688 C   0  0  0  0  0  0  0  0  0  0  0  0
  -10.2815  -18.1233   14.1188 C   0  0  0  0  0  0  0  0  0  0  0  0
  -11.4074  -17.9246   14.9003 C   0  0  0  0  0  0  0  0  0  0  0  0
  -12.0410  -16.6838   14.9091 C   0  0  0  0  0  0  0  0  0  0  0  0
  -13.1369  -16.4470   15.6538 N   0  0  0  0  0  0  0  0  0  0  0  0
  -13.7666  -15.2489   15.6763 C   0  0  0  0  0  0  0  0  0  0  0  0
  -14.9721  -15.0065   16.5024 C   0  0  0  0  0  0  0  0  0  0  0  0
  -14.1646  -11.4776   12.9919 C   0  0  0  0  0  0  0  0  0  0  0  0
  -14.7005  -10.2056   13.5799 N   0  0  0  0  0  0  0  0  0  0  0  0
  -15.7950   -9.6043   12.9079 C   0  0  0  0  0  0  0  0  0  0  0  0
  -16.1319  -10.2541   11.8275 O   0  0  0  0  0  0  0  0  0  0  0  0
  -16.5751   -8.4330   13.2034 C   0  0  1  0  0  0  0  0  0  0  0  0
  -17.4059   -8.1688   11.9775 N   0  0  0  0  0  0  0  0  0  0  0  0
  -17.3858   -6.8659   11.4020 C   0  0  0  0  0  0  0  0  0  0  0  0
  -16.6811   -5.9567   11.9142 O   0  0  0  0  0  0  0  0  0  0  0  0
  -18.1339   -6.5467   10.2672 O   0  0  0  0  0  0  0  0  0  0  0  0
  -18.0410   -5.2054    9.7763 C   0  0  0  0  0  0  0  0  0  0  0  0
  -19.4063   -4.5228    9.8838 C   0  0  0  0  0  0  0  0  0  0  0  0
  -19.2244   -3.3976    8.8883 C   0  0  0  0  0  0  0  0  0  0  0  0
  -18.6808   -4.1426    7.6951 C   0  0  0  0  0  0  0  0  0  0  0  0
  -17.7326   -5.1502    8.3183 C   0  0  0  0  0  0  0  0  0  0  0  0
  -17.6523   -8.5858   14.2667 C   0  0  0  0  0  0  0  0  0  0  0  0
  -18.3906   -7.2398   14.4337 C   0  0  0  0  0  0  0  0  0  0  0  0
  -17.1044   -8.8995   15.6300 C   0  0  0  0  0  0  0  0  0  0  0  0
  -18.6930   -9.5987   13.9133 C   0  0  0  0  0  0  0  0  0  0  0  0
  -11.1539   -6.3070   14.7422 C   0  0  0  0  0  0  0  0  0  0  0  0
  -10.7326   -5.1057   14.6271 O   0  0  0  0  0  0  0  0  0  0  0  0
  -10.6081   -7.2544   13.8739 N   0  0  0  0  0  0  0  0  0  0  0  0
   -9.4133   -6.8247   12.6716 S   0  0  0  0  0  0  0  0  0  0  0  0
   -9.5832   -5.4083   12.2061 O   0  0  0  0  0  0  0  0  0  0  0  0
   -9.4913   -7.7117   11.4791 O   0  0  0  0  0  0  0  0  0  0  0  0
   -7.8278   -7.0142   13.4802 C   0  0  0  0  0  0  0  0  0  0  0  0
   -7.6085   -6.1507   14.7035 C   0  0  0  0  0  0  0  0  0  0  0  0
   -7.2078   -8.3771   13.5753 C   0  0  0  0  0  0  0  0  0  0  0  0
   -6.6428   -7.4012   12.6239 C   0  0  0  0  0  0  0  0  0  0  0  0
  1  2  2  0
  3  2  1  6
  3  4  1  0
  4  5  1  0
  5  6  1  1
  6  7  1  0
  7  8  2  0
  9  7  1  6
  9 10  1  0
 10 11  1  0
 11 12  1  1
 12 13  1  0
 13 14  2  0
 14 15  1  0
 15 16  2  0
 16 17  1  0
 17 18  1  0
 18 19  1  0
 17 20  2  0
 20 21  1  0
 21 22  2  0
 22 23  1  0
 23 24  2  0
 24 25  1  0
 11 26  1  0
 26 27  1  0
 27 28  1  0
 28 29  2  0
 28 30  1  0
 30 31  1  6
 31 32  1  0
 32 33  2  0
 32 34  1  0
 34 35  1  0
 35 36  1  0
 36 37  1  0
 37 38  1  0
 38 39  1  0
 30 40  1  0
 40 41  1  0
 40 42  1  0
 40 43  1  0
  5 44  1  0
 44 45  2  0
 44 46  1  0
 46 47  1  0
 47 48  2  0
 47 49  2  0
 47 50  1  0
 50 51  1  0
 50 52  1  0
 52 53  1  0
  5  3  1  0
 27  9  1  0
 39 35  1  0
 53 50  1  0
 24 13  1  0
 22 15  1  0
M  END
>  <shape_align_shape_tanimoto>  (2) 
0.49231006991856335

>  <shape_align_color_tanimoto>  (2) 
0.1236797273941518

>  <metric>  (2) 
color

>  <metric_score>  (2) 
0.124

>  <template_pid>  (2) 
6CVW

>  <template_shape_score>  (2) 
0.492

>  <template_color_score>  (2) 
0.124

>  <template_combo_score>  (2) 
0.308

$$$$
6CVW_combo_pose
     RDKit          3D

 53 58  0  0  0  0  0  0  0  0999 V2000
  -12.8226   -3.4356   15.8838 C   0  0  0  0  0  0  0  0  0  0  0  0
  -12.7652   -4.0969   14.8004 C   0  0  0  0  0  0  0  0  0  0  0  0
  -13.3698   -5.4205   14.8278 C   0  0  2  0  0  0  0  0  0  0  0  0
  -13.0362   -6.2501   15.9210 C   0  0  0  0  0  0  0  0  0  0  0  0
  -12.5282   -6.5295   14.5532 C   0  0  1  0  0  0  0  0  0  0  0  0
  -13.0513   -7.6966   13.9466 N   0  0  0  0  0  0  0  0  0  0  0  0
  -12.8451   -8.8578   14.6179 C   0  0  0  0  0  0  0  0  0  0  0  0
  -12.2126   -8.7242   15.6875 O   0  0  0  0  0  0  0  0  0  0  0  0
  -13.2266  -10.1587   14.2873 C   0  0  2  0  0  0  0  0  0  0  0  0
  -12.0358  -10.9205   13.8631 C   0  0  0  0  0  0  0  0  0  0  0  0
  -12.7007  -12.1578   13.3805 C   0  0  1  0  0  0  0  0  0  0  0  0
  -13.0066  -12.8878   14.4063 O   0  0  0  0  0  0  0  0  0  0  0  0
  -12.7079  -14.0161   14.9533 C   0  0  0  0  0  0  0  0  0  0  0  0
  -13.3570  -14.3016   16.0748 N   0  0  0  0  0  0  0  0  0  0  0  0
  -13.1584  -15.3876   16.7210 C   0  0  0  0  0  0  0  0  0  0  0  0
  -13.8020  -15.6913   17.8656 C   0  0  0  0  0  0  0  0  0  0  0  0
  -13.5500  -16.8439   18.5077 C   0  0  0  0  0  0  0  0  0  0  0  0
  -14.2473  -17.0555   19.6505 O   0  0  0  0  0  0  0  0  0  0  0  0
  -14.0411  -18.2112   20.3669 C   0  0  0  0  0  0  0  0  0  0  0  0
  -12.6703  -17.7320   18.0594 C   0  0  0  0  0  0  0  0  0  0  0  0
  -12.0363  -17.4294   16.9296 C   0  0  0  0  0  0  0  0  0  0  0  0
  -12.2882  -16.2920   16.3022 C   0  0  0  0  0  0  0  0  0  0  0  0
  -11.6417  -16.0488   15.2196 N   0  0  0  0  0  0  0  0  0  0  0  0
  -11.8430  -14.9320   14.5519 C   0  0  0  0  0  0  0  0  0  0  0  0
  -11.0618  -14.7595   13.3708 C   0  0  0  0  0  0  0  0  0  0  0  0
  -13.8001  -11.6356   12.5780 C   0  0  0  0  0  0  0  0  0  0  0  0
  -14.1607  -10.4673   13.3667 N   0  0  0  0  0  0  0  0  0  0  0  0
  -15.3767   -9.9345   12.9869 C   0  0  0  0  0  0  0  0  0  0  0  0
  -15.8259  -10.5606   11.9720 O   0  0  0  0  0  0  0  0  0  0  0  0
  -16.1891   -8.9197   13.4328 C   0  0  1  0  0  0  0  0  0  0  0  0
  -17.2144   -8.6200   12.4591 N   0  0  0  0  0  0  0  0  0  0  0  0
  -17.0347   -7.5941   11.5697 C   0  0  0  0  0  0  0  0  0  0  0  0
  -15.9921   -6.9846   11.6499 O   0  0  0  0  0  0  0  0  0  0  0  0
  -17.9243   -7.2446   10.6445 O   0  0  0  0  0  0  0  0  0  0  0  0
  -17.5812   -6.1977    9.8099 C   0  0  0  0  0  0  0  0  0  0  0  0
  -17.5843   -6.7236    8.4685 C   0  0  0  0  0  0  0  0  0  0  0  0
  -18.9529   -6.5859    8.0427 C   0  0  0  0  0  0  0  0  0  0  0  0
  -19.5277   -5.5062    8.8233 C   0  0  0  0  0  0  0  0  0  0  0  0
  -18.5534   -5.1375    9.8195 C   0  0  0  0  0  0  0  0  0  0  0  0
  -16.8861   -9.0758   14.6876 C   0  0  0  0  0  0  0  0  0  0  0  0
  -17.6741   -7.8300   14.8568 C   0  0  0  0  0  0  0  0  0  0  0  0
  -16.0239   -9.1249   15.8569 C   0  0  0  0  0  0  0  0  0  0  0  0
  -17.7890  -10.1744   14.7703 C   0  0  0  0  0  0  0  0  0  0  0  0
  -11.1177   -6.3532   14.4327 C   0  0  0  0  0  0  0  0  0  0  0  0
  -10.6218   -5.3488   14.9445 O   0  0  0  0  0  0  0  0  0  0  0  0
  -10.2671   -7.1941   13.8047 N   0  0  0  0  0  0  0  0  0  0  0  0
   -8.6525   -6.7868   13.7903 S   0  0  0  0  0  0  0  0  0  0  0  0
   -8.5780   -5.4641   13.1796 O   0  0  0  0  0  0  0  0  0  0  0  0
   -8.1337   -6.6445   15.1488 O   0  0  0  0  0  0  0  0  0  0  0  0
   -7.6865   -7.9032   12.9676 C   0  0  0  0  0  0  0  0  0  0  0  0
   -7.6889   -9.2640   13.4733 C   0  0  0  0  0  0  0  0  0  0  0  0
   -6.3392   -7.3746   12.6218 C   0  0  0  0  0  0  0  0  0  0  0  0
   -7.3030   -7.6484   11.6146 C   0  0  0  0  0  0  0  0  0  0  0  0
  1  2  2  0
  3  2  1  1
  3  4  1  0
  4  5  1  0
  5  6  1  6
  6  7  1  0
  7  8  2  0
  9  7  1  6
  9 10  1  0
 10 11  1  0
 11 12  1  1
 12 13  1  0
 13 14  2  0
 14 15  1  0
 15 16  2  0
 16 17  1  0
 17 18  1  0
 18 19  1  0
 17 20  2  0
 20 21  1  0
 21 22  2  0
 22 23  1  0
 23 24  2  0
 24 25  1  0
 11 26  1  0
 26 27  1  0
 27 28  1  0
 28 29  2  0
 28 30  1  0
 30 31  1  6
 31 32  1  0
 32 33  2  0
 32 34  1  0
 34 35  1  0
 35 36  1  0
 36 37  1  0
 37 38  1  0
 38 39  1  0
 30 40  1  0
 40 41  1  0
 40 42  1  0
 40 43  1  0
  5 44  1  0
 44 45  2  0
 44 46  1  0
 46 47  1  0
 47 48  2  0
 47 49  2  0
 47 50  1  0
 50 51  1  0
 50 52  1  0
 52 53  1  0
  5  3  1  0
 27  9  1  0
 39 35  1  0
 53 50  1  0
 24 13  1  0
 22 15  1  0
M  END
>  <shape_align_shape_tanimoto>  (3) 
0.55823733056737845

>  <shape_align_color_tanimoto>  (3) 
0.11518283273524478

>  <metric>  (3) 
combo

>  <metric_score>  (3) 
0.337

>  <template_pid>  (3) 
6CVW

>  <template_shape_score>  (3) 
0.558

>  <template_color_score>  (3) 
0.115

>  <template_combo_score>  (3) 
0.337

$$$$
