4XSZ_shape_pose
     RDKit          3D

 20 21  0  0  0  0  0  0  0  0999 V2000
   87.1254   42.4087  137.4847 O   0  0  0  0  0  0  0  0  0  0  0  0
   85.9984   41.5904  137.5018 N   0  0  0  0  0  0  0  0  0  0  0  0
   85.3355   41.4338  138.5918 C   0  0  0  0  0  0  0  0  0  0  0  0
   85.7828   42.1089  139.7568 N   0  0  0  0  0  0  0  0  0  0  0  0
   86.4648   43.3582  139.7279 C   0  0  0  0  0  0  0  0  0  0  0  0
   87.8115   43.5214  139.8297 C   0  0  0  0  0  0  0  0  0  0  0  0
   88.3439   44.8164  139.7977 C   0  0  0  0  0  0  0  0  0  0  0  0
   87.5340   45.9283  139.6645 C   0  0  0  0  0  0  0  0  0  0  0  0
   86.1746   45.7566  139.5626 C   0  0  0  0  0  0  0  0  0  0  0  0
   85.6509   44.4876  139.5941 C   0  0  0  0  0  0  0  0  0  0  0  0
   84.1581   40.5791  138.5633 C   0  0  0  0  0  0  0  0  0  0  0  0
   83.0759   40.9232  139.3747 C   0  0  0  0  0  0  0  0  0  0  0  0
   81.9150   40.1660  139.4032 C   0  0  0  0  0  0  0  0  0  0  0  0
   81.8078   39.0422  138.6178 C   0  0  0  0  0  0  0  0  0  0  0  0
   82.8752   38.6878  137.8065 C   0  0  0  0  0  0  0  0  0  0  0  0
   82.7781   37.4859  136.9595 C   0  0  0  0  0  0  0  0  0  0  0  0
   81.6626   37.5349  136.1651 F   0  0  0  0  0  0  0  0  0  0  0  0
   82.7056   36.3267  137.7232 F   0  0  0  0  0  0  0  0  0  0  0  0
   83.8864   37.3987  136.1283 F   0  0  0  0  0  0  0  0  0  0  0  0
   84.0510   39.4510  137.7750 C   0  0  0  0  0  0  0  0  0  0  0  0
  1  2  1  0
  2  3  2  0
  3  4  1  0
  4  5  1  0
  5  6  2  0
  6  7  1  0
  7  8  2  0
  8  9  1  0
  9 10  2  0
  3 11  1  0
 11 12  2  0
 12 13  1  0
 13 14  2  0
 14 15  1  0
 15 16  1  0
 16 17  1  0
 16 18  1  0
 16 19  1  0
 15 20  2  0
 10  5  1  0
 20 11  1  0
M  END
>  <shape_align_shape_tanimoto>  (1) 
0.67493011470187203

>  <shape_align_color_tanimoto>  (1) 
0.028732369260029422

>  <metric>  (1) 
shape

>  <metric_score>  (1) 
0.675

>  <template_pid>  (1) 
4XSZ

>  <template_shape_score>  (1) 
0.675

>  <template_color_score>  (1) 
0.029

>  <template_combo_score>  (1) 
0.352

$$$$
4XSZ_color_pose
     RDKit          3D

 20 21  0  0  0  0  0  0  0  0999 V2000
   82.1164   41.1156  139.0831 O   0  0  0  0  0  0  0  0  0  0  0  0
   83.2678   41.8836  139.0777 N   0  0  0  0  0  0  0  0  0  0  0  0
   84.4546   41.3149  139.1147 C   0  0  0  0  0  0  0  0  0  0  0  0
   84.4212   39.8875  139.1569 N   0  0  0  0  0  0  0  0  0  0  0  0
   83.6157   39.1277  138.2778 C   0  0  0  0  0  0  0  0  0  0  0  0
   83.0562   39.5686  137.1108 C   0  0  0  0  0  0  0  0  0  0  0  0
   82.2559   38.8216  136.2878 C   0  0  0  0  0  0  0  0  0  0  0  0
   81.9837   37.5164  136.6520 C   0  0  0  0  0  0  0  0  0  0  0  0
   82.5197   37.0144  137.8174 C   0  0  0  0  0  0  0  0  0  0  0  0
   83.3329   37.8050  138.6349 C   0  0  0  0  0  0  0  0  0  0  0  0
   85.6820   42.0889  139.1245 C   0  0  0  0  0  0  0  0  0  0  0  0
   86.9159   41.6204  138.7404 C   0  0  0  0  0  0  0  0  0  0  0  0
   88.0645   42.3814  138.7512 C   0  0  0  0  0  0  0  0  0  0  0  0
   88.0064   43.6970  139.1674 C   0  0  0  0  0  0  0  0  0  0  0  0
   86.7678   44.2095  139.5660 C   0  0  0  0  0  0  0  0  0  0  0  0
   86.7550   45.6302  140.0032 C   0  0  0  0  0  0  0  0  0  0  0  0
   87.4632   45.6885  141.2038 F   0  0  0  0  0  0  0  0  0  0  0  0
   87.4835   46.3726  139.0774 F   0  0  0  0  0  0  0  0  0  0  0  0
   85.4844   46.1385  140.1106 F   0  0  0  0  0  0  0  0  0  0  0  0
   85.6313   43.4182  139.5438 C   0  0  0  0  0  0  0  0  0  0  0  0
  1  2  1  0
  2  3  2  0
  3  4  1  0
  4  5  1  0
  5  6  2  0
  6  7  1  0
  7  8  2  0
  8  9  1  0
  9 10  2  0
  3 11  1  0
 11 12  2  0
 12 13  1  0
 13 14  2  0
 14 15  1  0
 15 16  1  0
 16 17  1  0
 16 18  1  0
 16 19  1  0
 15 20  2  0
 10  5  1  0
 20 11  1  0
M  END
>  <shape_align_shape_tanimoto>  (2) 
0.59472149628257676

>  <shape_align_color_tanimoto>  (2) 
0.058494669190619096

>  <metric>  (2) 
color

>  <metric_score>  (2) 
0.058

>  <template_pid>  (2) 
4XSZ

>  <template_shape_score>  (2) 
0.595

>  <template_color_score>  (2) 
0.058

>  <template_combo_score>  (2) 
0.327

$$$$
4XSZ_combo_pose
     RDKit          3D

 20 21  0  0  0  0  0  0  0  0999 V2000
   83.5252   41.8477  140.8356 O   0  0  0  0  0  0  0  0  0  0  0  0
   82.9224   40.8985  140.0016 N   0  0  0  0  0  0  0  0  0  0  0  0
   83.6644   40.2164  139.1571 C   0  0  0  0  0  0  0  0  0  0  0  0
   85.0445   40.5263  139.1786 N   0  0  0  0  0  0  0  0  0  0  0  0
   85.5047   41.8613  139.1594 C   0  0  0  0  0  0  0  0  0  0  0  0
   84.7916   42.9603  138.7673 C   0  0  0  0  0  0  0  0  0  0  0  0
   85.2862   44.2493  138.8002 C   0  0  0  0  0  0  0  0  0  0  0  0
   86.5763   44.4790  139.2504 C   0  0  0  0  0  0  0  0  0  0  0  0
   87.3149   43.3807  139.6519 C   0  0  0  0  0  0  0  0  0  0  0  0
   86.8100   42.0875  139.6159 C   0  0  0  0  0  0  0  0  0  0  0  0
   83.0623   39.2117  138.2937 C   0  0  0  0  0  0  0  0  0  0  0  0
   81.6891   39.0497  138.3909 C   0  0  0  0  0  0  0  0  0  0  0  0
   81.0552   38.1175  137.6069 C   0  0  0  0  0  0  0  0  0  0  0  0
   81.7645   37.3331  136.7176 C   0  0  0  0  0  0  0  0  0  0  0  0
   83.1495   37.4899  136.6148 C   0  0  0  0  0  0  0  0  0  0  0  0
   83.9269   36.6462  135.6599 C   0  0  0  0  0  0  0  0  0  0  0  0
   83.4011   36.7113  134.3811 F   0  0  0  0  0  0  0  0  0  0  0  0
   84.0476   35.3427  136.0681 F   0  0  0  0  0  0  0  0  0  0  0  0
   85.1949   37.2020  135.5785 F   0  0  0  0  0  0  0  0  0  0  0  0
   83.7733   38.4364  137.4137 C   0  0  0  0  0  0  0  0  0  0  0  0
  1  2  1  0
  2  3  2  0
  3  4  1  0
  4  5  1  0
  5  6  2  0
  6  7  1  0
  7  8  2  0
  8  9  1  0
  9 10  2  0
  3 11  1  0
 11 12  2  0
 12 13  1  0
 13 14  2  0
 14 15  1  0
 15 16  1  0
 16 17  1  0
 16 18  1  0
 16 19  1  0
 15 20  2  0
 10  5  1  0
 20 11  1  0
M  END
>  <shape_align_shape_tanimoto>  (3) 
0.65280642514370457

>  <shape_align_color_tanimoto>  (3) 
0.052670293389310806

>  <metric>  (3) 
combo

>  <metric_score>  (3) 
0.353

>  <template_pid>  (3) 
4XSZ

>  <template_shape_score>  (3) 
0.653

>  <template_color_score>  (3) 
0.053

>  <template_combo_score>  (3) 
0.353

$$$$
