4FSL_shape_pose
     RDKit          3D

 33 35  0  0  0  0  0  0  0  0999 V2000
   33.9473   46.6491   79.7299 C   0  0  0  0  0  0  0  0  0  0  0  0
   33.6769   48.0235   79.5721 O   0  0  0  0  0  0  0  0  0  0  0  0
   33.7579   48.5908   78.3196 C   0  0  0  0  0  0  0  0  0  0  0  0
   33.4762   49.9580   78.2412 C   0  0  0  0  0  0  0  0  0  0  0  0
   33.5442   50.5714   77.0074 C   0  0  0  0  0  0  0  0  0  0  0  0
   33.8883   49.8413   75.8554 C   0  0  0  0  0  0  0  0  0  0  0  0
   33.9473   50.5568   74.5409 C   0  0  0  0  0  0  0  0  0  0  0  0
   35.0743   50.4007   73.8200 N   0  0  0  0  0  0  0  0  0  0  0  0
   34.8853   51.4292   72.3293 S   0  0  0  0  0  0  0  0  0  0  0  0
   33.2103   51.9864   72.8745 C   0  0  0  0  0  0  0  0  0  0  0  0
   32.3756   52.9051   72.1183 C   0  0  0  0  0  0  0  0  0  0  0  0
   32.9946   51.3454   74.0870 C   0  0  0  0  0  0  0  0  0  0  0  0
   31.6520   51.5143   74.7221 C   0  0  0  0  0  0  0  0  0  0  0  0
   31.1108   52.6360   74.5526 O   0  0  0  0  0  0  0  0  0  0  0  0
   31.0396   50.4757   75.4541 N   0  0  0  0  0  0  0  0  0  0  0  0
   29.7725   50.6871   76.0455 C   0  0  0  0  0  0  0  0  0  0  0  0
   29.0930   51.7583   75.9879 N   0  0  0  0  0  0  0  0  0  0  0  0
   29.2297   49.5567   76.7774 N   0  0  0  0  0  0  0  0  0  0  0  0
   28.0654   49.7449   77.6544 C   0  0  0  0  0  0  0  0  0  0  0  0
   27.7687   48.4237   78.2654 C   0  0  0  0  0  0  0  0  0  0  0  0
   28.3958   48.1213   79.4739 C   0  0  0  0  0  0  0  0  0  0  0  0
   28.1603   46.9204   80.0820 C   0  0  0  0  0  0  0  0  0  0  0  0
   28.8151   46.5798   81.3640 C   0  0  0  0  0  0  0  0  0  0  0  0
   27.2932   46.0385   79.4610 C   0  0  0  0  0  0  0  0  0  0  0  0
   27.0822   44.7876   80.1471 N   0  0  0  0  0  0  0  0  0  0  0  0
   26.0246   44.7318   81.0815 C   0  0  0  0  0  0  0  0  0  0  0  0
   25.7978   43.4483   81.7944 C   0  0  0  0  0  0  0  0  0  0  0  0
   25.2644   45.7067   81.3439 O   0  0  0  0  0  0  0  0  0  0  0  0
   26.6680   46.3258   78.2674 C   0  0  0  0  0  0  0  0  0  0  0  0
   25.5729   45.1449   77.5375 Cl  0  0  0  0  0  0  0  0  0  0  0  0
   26.9045   47.5449   77.6464 C   0  0  0  0  0  0  0  0  0  0  0  0
   34.1673   48.4913   75.9275 C   0  0  0  0  0  0  0  0  0  0  0  0
   34.0924   47.8997   77.1745 C   0  0  0  0  0  0  0  0  0  0  0  0
  1  2  1  0
  2  3  1  0
  3  4  2  0
  4  5  1  0
  5  6  2  0
  6  7  1  0
  7  8  2  0
  8  9  1  0
  9 10  1  0
 10 11  1  0
 10 12  2  0
 12 13  1  0
 13 14  2  0
 13 15  1  0
 15 16  1  0
 16 17  2  0
 16 18  1  0
 18 19  1  0
 19 20  1  0
 20 21  2  0
 21 22  1  0
 22 23  1  0
 22 24  2  0
 24 25  1  0
 25 26  1  0
 26 27  1  0
 26 28  2  0
 24 29  1  0
 29 30  1  0
 29 31  2  0
  6 32  1  0
 32 33  2  0
 33  3  1  0
 12  7  1  0
 31 20  1  0
M  CHG  1  17   1
M  END
>  <shape_align_shape_tanimoto>  (1) 
0.64991486108247798

>  <shape_align_color_tanimoto>  (1) 
0.058142287727912308

>  <metric>  (1) 
shape

>  <metric_score>  (1) 
0.650

>  <template_pid>  (1) 
4FSL

>  <template_shape_score>  (1) 
0.650

>  <template_color_score>  (1) 
0.058

>  <template_combo_score>  (1) 
0.354

$$$$
4FSL_color_pose
     RDKit          3D

 33 35  0  0  0  0  0  0  0  0999 V2000
   22.5296   45.8859   75.6133 C   0  0  0  0  0  0  0  0  0  0  0  0
   22.7014   46.1643   76.9701 O   0  0  0  0  0  0  0  0  0  0  0  0
   23.8969   46.2901   77.6215 C   0  0  0  0  0  0  0  0  0  0  0  0
   25.1380   46.1533   76.9987 C   0  0  0  0  0  0  0  0  0  0  0  0
   26.3235   46.2900   77.7019 C   0  0  0  0  0  0  0  0  0  0  0  0
   26.2702   46.5681   79.0485 C   0  0  0  0  0  0  0  0  0  0  0  0
   27.5153   46.7383   79.8553 C   0  0  0  0  0  0  0  0  0  0  0  0
   27.5685   46.0021   81.0189 N   0  0  0  0  0  0  0  0  0  0  0  0
   29.1666   46.3945   81.7614 S   0  0  0  0  0  0  0  0  0  0  0  0
   29.6196   47.4960   80.4702 C   0  0  0  0  0  0  0  0  0  0  0  0
   30.9113   48.2256   80.5001 C   0  0  0  0  0  0  0  0  0  0  0  0
   28.5587   47.5137   79.5540 C   0  0  0  0  0  0  0  0  0  0  0  0
   28.5614   48.3987   78.3628 C   0  0  0  0  0  0  0  0  0  0  0  0
   27.4325   48.7437   77.9570 O   0  0  0  0  0  0  0  0  0  0  0  0
   29.7273   48.8285   77.7168 N   0  0  0  0  0  0  0  0  0  0  0  0
   29.6550   49.6780   76.5886 C   0  0  0  0  0  0  0  0  0  0  0  0
   28.5922   50.1260   76.0575 N   0  0  0  0  0  0  0  0  0  0  0  0
   30.9252   50.0547   76.0081 N   0  0  0  0  0  0  0  0  0  0  0  0
   30.9894   50.8596   74.7933 C   0  0  0  0  0  0  0  0  0  0  0  0
   32.3883   51.1289   74.3689 C   0  0  0  0  0  0  0  0  0  0  0  0
   32.9815   52.2815   74.8805 C   0  0  0  0  0  0  0  0  0  0  0  0
   34.2763   52.6338   74.5557 C   0  0  0  0  0  0  0  0  0  0  0  0
   34.9530   53.8399   75.0663 C   0  0  0  0  0  0  0  0  0  0  0  0
   34.9682   51.8002   73.7012 C   0  0  0  0  0  0  0  0  0  0  0  0
   36.3169   52.0672   73.2958 N   0  0  0  0  0  0  0  0  0  0  0  0
   36.5230   52.8549   72.1138 C   0  0  0  0  0  0  0  0  0  0  0  0
   37.8991   53.1634   71.6459 C   0  0  0  0  0  0  0  0  0  0  0  0
   35.4869   53.2620   71.5071 O   0  0  0  0  0  0  0  0  0  0  0  0
   34.3862   50.6389   73.1790 C   0  0  0  0  0  0  0  0  0  0  0  0
   35.3054   49.6088   72.0949 Cl  0  0  0  0  0  0  0  0  0  0  0  0
   33.0822   50.2970   73.5148 C   0  0  0  0  0  0  0  0  0  0  0  0
   25.0462   46.7010   79.6538 C   0  0  0  0  0  0  0  0  0  0  0  0
   23.8516   46.5715   78.9862 C   0  0  0  0  0  0  0  0  0  0  0  0
  1  2  1  0
  2  3  1  0
  3  4  2  0
  4  5  1  0
  5  6  2  0
  6  7  1  0
  7  8  2  0
  8  9  1  0
  9 10  1  0
 10 11  1  0
 10 12  2  0
 12 13  1  0
 13 14  2  0
 13 15  1  0
 15 16  1  0
 16 17  2  0
 16 18  1  0
 18 19  1  0
 19 20  1  0
 20 21  2  0
 21 22  1  0
 22 23  1  0
 22 24  2  0
 24 25  1  0
 25 26  1  0
 26 27  1  0
 26 28  2  0
 24 29  1  0
 29 30  1  0
 29 31  2  0
  6 32  1  0
 32 33  2  0
 33  3  1  0
 12  7  1  0
 31 20  1  0
M  CHG  1  17   1
M  END
>  <shape_align_shape_tanimoto>  (2) 
0.5229680140970201

>  <shape_align_color_tanimoto>  (2) 
0.15002520282716245

>  <metric>  (2) 
color

>  <metric_score>  (2) 
0.150

>  <template_pid>  (2) 
4FSL

>  <template_shape_score>  (2) 
0.523

>  <template_color_score>  (2) 
0.150

>  <template_combo_score>  (2) 
0.336

$$$$
4FSL_combo_pose
     RDKit          3D

 33 35  0  0  0  0  0  0  0  0999 V2000
   35.2152   47.8596   80.3887 C   0  0  0  0  0  0  0  0  0  0  0  0
   34.6251   47.2292   79.2647 O   0  0  0  0  0  0  0  0  0  0  0  0
   34.2831   47.9931   78.1453 C   0  0  0  0  0  0  0  0  0  0  0  0
   34.5581   49.3528   78.2401 C   0  0  0  0  0  0  0  0  0  0  0  0
   34.2304   50.1396   77.1339 C   0  0  0  0  0  0  0  0  0  0  0  0
   33.6563   49.5712   75.9997 C   0  0  0  0  0  0  0  0  0  0  0  0
   33.4750   50.5315   74.8576 C   0  0  0  0  0  0  0  0  0  0  0  0
   34.6578   50.7205   74.1815 N   0  0  0  0  0  0  0  0  0  0  0  0
   34.2534   51.9329   72.8998 S   0  0  0  0  0  0  0  0  0  0  0  0
   32.5882   52.0716   73.3752 C   0  0  0  0  0  0  0  0  0  0  0  0
   31.6790   52.9694   72.6273 C   0  0  0  0  0  0  0  0  0  0  0  0
   32.4023   51.2222   74.4537 C   0  0  0  0  0  0  0  0  0  0  0  0
   31.0465   51.1668   75.0591 C   0  0  0  0  0  0  0  0  0  0  0  0
   30.2077   52.0570   74.7047 O   0  0  0  0  0  0  0  0  0  0  0  0
   30.6022   50.2232   75.9817 N   0  0  0  0  0  0  0  0  0  0  0  0
   29.2790   50.2170   76.5251 C   0  0  0  0  0  0  0  0  0  0  0  0
   28.3778   51.0675   76.2328 N   0  0  0  0  0  0  0  0  0  0  0  0
   28.9638   49.1478   77.4413 N   0  0  0  0  0  0  0  0  0  0  0  0
   27.6131   48.9521   77.9479 C   0  0  0  0  0  0  0  0  0  0  0  0
   27.5097   47.7441   78.8096 C   0  0  0  0  0  0  0  0  0  0  0  0
   27.1900   46.5577   78.1687 C   0  0  0  0  0  0  0  0  0  0  0  0
   27.0617   45.3577   78.8413 C   0  0  0  0  0  0  0  0  0  0  0  0
   26.7204   44.0941   78.1446 C   0  0  0  0  0  0  0  0  0  0  0  0
   27.2726   45.3966   80.2138 C   0  0  0  0  0  0  0  0  0  0  0  0
   27.1440   44.1429   80.9051 N   0  0  0  0  0  0  0  0  0  0  0  0
   25.9035   43.7198   81.4200 C   0  0  0  0  0  0  0  0  0  0  0  0
   25.6715   42.4483   82.1477 C   0  0  0  0  0  0  0  0  0  0  0  0
   24.9006   44.4816   81.2537 O   0  0  0  0  0  0  0  0  0  0  0  0
   27.5905   46.5664   80.8789 C   0  0  0  0  0  0  0  0  0  0  0  0
   27.8388   46.5543   82.6059 Cl  0  0  0  0  0  0  0  0  0  0  0  0
   27.7142   47.7700   80.1717 C   0  0  0  0  0  0  0  0  0  0  0  0
   33.3907   48.2364   75.9172 C   0  0  0  0  0  0  0  0  0  0  0  0
   33.7112   47.4349   77.0103 C   0  0  0  0  0  0  0  0  0  0  0  0
  1  2  1  0
  2  3  1  0
  3  4  2  0
  4  5  1  0
  5  6  2  0
  6  7  1  0
  7  8  2  0
  8  9  1  0
  9 10  1  0
 10 11  1  0
 10 12  2  0
 12 13  1  0
 13 14  2  0
 13 15  1  0
 15 16  1  0
 16 17  2  0
 16 18  1  0
 18 19  1  0
 19 20  1  0
 20 21  2  0
 21 22  1  0
 22 23  1  0
 22 24  2  0
 24 25  1  0
 25 26  1  0
 26 27  1  0
 26 28  2  0
 24 29  1  0
 29 30  1  0
 29 31  2  0
  6 32  1  0
 32 33  2  0
 33  3  1  0
 12  7  1  0
 31 20  1  0
M  CHG  1  17   1
M  END
>  <shape_align_shape_tanimoto>  (3) 
0.63466796697306249

>  <shape_align_color_tanimoto>  (3) 
0.098234317434235746

>  <metric>  (3) 
combo

>  <metric_score>  (3) 
0.366

>  <template_pid>  (3) 
4FSL

>  <template_shape_score>  (3) 
0.635

>  <template_color_score>  (3) 
0.098

>  <template_combo_score>  (3) 
0.366

$$$$
