6AGT_shape_pose
     RDKit          3D

 21 23  0  0  0  0  0  0  0  0999 V2000
    1.8445   42.5477  -15.0626 O   0  0  0  0  0  0  0  0  0  0  0  0
    1.6294   43.5691  -14.3819 C   0  0  0  0  0  0  0  0  0  0  0  0
    1.2876   44.8352  -14.8839 N   0  0  0  0  0  0  0  0  0  0  0  0
    1.1174   45.2528  -16.2325 C   0  0  0  0  0  0  0  0  0  0  0  0
    2.3163   45.1828  -17.1417 C   0  0  0  0  0  0  0  0  0  0  0  0
    3.4402   46.0045  -16.5962 C   0  0  0  0  0  0  0  0  0  0  0  0
    4.6878   45.2241  -16.2941 C   0  0  0  0  0  0  0  0  0  0  0  0
    5.0148   44.3998  -17.5470 C   0  0  0  0  0  0  0  0  0  0  0  0
    3.9495   43.3076  -17.5431 C   0  0  0  0  0  0  0  0  0  0  0  0
    2.6056   43.9162  -17.8032 C   0  0  0  0  0  0  0  0  0  0  0  0
    1.7579   43.3816  -12.9129 C   0  0  0  0  0  0  0  0  0  0  0  0
    2.0944   42.1352  -12.4173 C   0  0  0  0  0  0  0  0  0  0  0  0
    2.2250   41.9165  -11.0486 C   0  0  0  0  0  0  0  0  0  0  0  0
    2.5294   40.7947  -10.5744 O   0  0  0  0  0  0  0  0  0  0  0  0
    2.0041   42.9950  -10.2163 C   0  0  0  0  0  0  0  0  0  0  0  0
    2.1122   42.8654   -8.8554 C   0  0  0  0  0  0  0  0  0  0  0  0
    1.8942   43.9342   -8.0156 C   0  0  0  0  0  0  0  0  0  0  0  0
    1.5602   45.1600   -8.5578 C   0  0  0  0  0  0  0  0  0  0  0  0
    1.4486   45.2998   -9.9359 C   0  0  0  0  0  0  0  0  0  0  0  0
    1.6727   44.2072  -10.7727 C   0  0  0  0  0  0  0  0  0  0  0  0
    1.5619   44.3611  -12.0750 O   0  0  0  0  0  0  0  0  0  0  0  0
  1  2  2  0
  2  3  1  0
  3  4  1  0
  4  5  1  0
  5  6  1  0
  6  7  1  0
  7  8  1  0
  8  9  1  0
  9 10  1  0
  2 11  1  0
 11 12  2  0
 12 13  1  0
 13 14  2  0
 13 15  1  0
 15 16  2  0
 16 17  1  0
 17 18  2  0
 18 19  1  0
 19 20  2  0
 20 21  1  0
 10  5  1  0
 21 11  1  0
 20 15  1  0
M  END
>  <shape_align_shape_tanimoto>  (1) 
0.1636752236420449

>  <shape_align_color_tanimoto>  (1) 
0.010932292755064047

>  <metric>  (1) 
shape

>  <metric_score>  (1) 
0.164

>  <template_pid>  (1) 
6AGT

>  <template_shape_score>  (1) 
0.164

>  <template_color_score>  (1) 
0.011

>  <template_combo_score>  (1) 
0.087

$$$$
6AGT_color_pose
     RDKit          3D

 21 23  0  0  0  0  0  0  0  0999 V2000
   -1.1982   44.3541  -11.5030 O   0  0  0  0  0  0  0  0  0  0  0  0
   -0.3409   43.4406  -11.7572 C   0  0  0  0  0  0  0  0  0  0  0  0
   -0.3791   42.3139  -10.8909 N   0  0  0  0  0  0  0  0  0  0  0  0
   -1.3686   42.3207   -9.8304 C   0  0  0  0  0  0  0  0  0  0  0  0
   -1.2223   41.0328   -9.0448 C   0  0  0  0  0  0  0  0  0  0  0  0
   -2.2583   41.0470   -7.9396 C   0  0  0  0  0  0  0  0  0  0  0  0
   -2.1439   39.8171   -7.0639 C   0  0  0  0  0  0  0  0  0  0  0  0
   -1.3005   38.7623   -7.7822 C   0  0  0  0  0  0  0  0  0  0  0  0
   -1.7765   38.5908   -9.1913 C   0  0  0  0  0  0  0  0  0  0  0  0
   -1.5653   39.8601   -9.9583 C   0  0  0  0  0  0  0  0  0  0  0  0
    0.6034   43.5642  -12.8645 C   0  0  0  0  0  0  0  0  0  0  0  0
    1.5415   42.6002  -13.1688 C   0  0  0  0  0  0  0  0  0  0  0  0
    2.3994   42.7927  -14.2335 C   0  0  0  0  0  0  0  0  0  0  0  0
    3.2647   41.9105  -14.5193 O   0  0  0  0  0  0  0  0  0  0  0  0
    2.2981   43.9570  -14.9770 C   0  0  0  0  0  0  0  0  0  0  0  0
    3.1311   44.2010  -16.0525 C   0  0  0  0  0  0  0  0  0  0  0  0
    2.9960   45.3821  -16.7720 C   0  0  0  0  0  0  0  0  0  0  0  0
    2.0213   46.3098  -16.4018 C   0  0  0  0  0  0  0  0  0  0  0  0
    1.1770   46.0713  -15.3179 C   0  0  0  0  0  0  0  0  0  0  0  0
    1.3304   44.8916  -14.6194 C   0  0  0  0  0  0  0  0  0  0  0  0
    0.5441   44.6517  -13.5969 O   0  0  0  0  0  0  0  0  0  0  0  0
  1  2  2  0
  2  3  1  0
  3  4  1  0
  4  5  1  0
  5  6  1  0
  6  7  1  0
  7  8  1  0
  8  9  1  0
  9 10  1  0
  2 11  1  0
 11 12  2  0
 12 13  1  0
 13 14  2  0
 13 15  1  0
 15 16  2  0
 16 17  1  0
 17 18  2  0
 18 19  1  0
 19 20  2  0
 20 21  1  0
 10  5  1  0
 21 11  1  0
 20 15  1  0
M  END
>  <shape_align_shape_tanimoto>  (2) 
0.14655098232712932

>  <shape_align_color_tanimoto>  (2) 
0.026210887675780743

>  <metric>  (2) 
color

>  <metric_score>  (2) 
0.026

>  <template_pid>  (2) 
6AGT

>  <template_shape_score>  (2) 
0.147

>  <template_color_score>  (2) 
0.026

>  <template_combo_score>  (2) 
0.086

$$$$
6AGT_combo_pose
     RDKit          3D

 21 23  0  0  0  0  0  0  0  0999 V2000
   -0.4203   41.9887  -14.8568 O   0  0  0  0  0  0  0  0  0  0  0  0
    0.3949   42.7809  -14.3053 C   0  0  0  0  0  0  0  0  0  0  0  0
    1.3261   43.5578  -15.1018 N   0  0  0  0  0  0  0  0  0  0  0  0
    1.2714   43.3822  -16.5045 C   0  0  0  0  0  0  0  0  0  0  0  0
    2.1983   44.1732  -17.3603 C   0  0  0  0  0  0  0  0  0  0  0  0
    2.0632   45.6544  -17.2928 C   0  0  0  0  0  0  0  0  0  0  0  0
    2.8216   46.2851  -16.2004 C   0  0  0  0  0  0  0  0  0  0  0  0
    4.2218   45.8154  -16.1084 C   0  0  0  0  0  0  0  0  0  0  0  0
    4.4495   44.3518  -16.2398 C   0  0  0  0  0  0  0  0  0  0  0  0
    3.6233   43.7037  -17.2959 C   0  0  0  0  0  0  0  0  0  0  0  0
    0.3833   42.8991  -12.8700 C   0  0  0  0  0  0  0  0  0  0  0  0
   -0.5093   42.1500  -12.1535 C   0  0  0  0  0  0  0  0  0  0  0  0
   -0.5430   42.2446  -10.7566 C   0  0  0  0  0  0  0  0  0  0  0  0
   -1.3237   41.5967  -10.0478 O   0  0  0  0  0  0  0  0  0  0  0  0
    0.3686   43.1278  -10.1723 C   0  0  0  0  0  0  0  0  0  0  0  0
    0.4328   43.3089   -8.8053 C   0  0  0  0  0  0  0  0  0  0  0  0
    1.3420   44.1891   -8.2303 C   0  0  0  0  0  0  0  0  0  0  0  0
    2.2111   44.9089   -9.0352 C   0  0  0  0  0  0  0  0  0  0  0  0
    2.1562   44.7358  -10.4069 C   0  0  0  0  0  0  0  0  0  0  0  0
    1.2451   43.8560  -10.9586 C   0  0  0  0  0  0  0  0  0  0  0  0
    1.2288   43.7240  -12.2644 O   0  0  0  0  0  0  0  0  0  0  0  0
  1  2  2  0
  2  3  1  0
  3  4  1  0
  4  5  1  0
  5  6  1  0
  6  7  1  0
  7  8  1  0
  8  9  1  0
  9 10  1  0
  2 11  1  0
 11 12  2  0
 12 13  1  0
 13 14  2  0
 13 15  1  0
 15 16  2  0
 16 17  1  0
 17 18  2  0
 18 19  1  0
 19 20  2  0
 20 21  1  0
 10  5  1  0
 21 11  1  0
 20 15  1  0
M  END
>  <shape_align_shape_tanimoto>  (3) 
0.15592794981274377

>  <shape_align_color_tanimoto>  (3) 
0.021980537046585986

>  <metric>  (3) 
combo

>  <metric_score>  (3) 
0.089

>  <template_pid>  (3) 
6AGT

>  <template_shape_score>  (3) 
0.156

>  <template_color_score>  (3) 
0.022

>  <template_combo_score>  (3) 
0.089

$$$$
