6I5P_shape_pose
     RDKit          3D

 48 48  0  0  0  0  0  0  0  0999 V2000
   27.5936   27.4550   62.8053 C   0  0  0  0  0  0  0  0  0  0  0  0
   28.6032   27.0991   63.8547 C   0  0  0  0  0  0  0  0  0  0  0  0
   30.0404   27.3823   63.4791 C   0  0  2  0  0  0  0  0  0  0  0  0
   30.8425   26.9441   64.6446 N   0  0  0  0  0  0  0  0  0  0  0  0
   30.3338   28.8250   63.2997 C   0  0  0  0  0  0  0  0  0  0  0  0
   30.8567   29.4659   64.2815 O   0  0  0  0  0  0  0  0  0  0  0  0
   30.0942   29.5686   62.1340 N   0  0  0  0  0  0  0  0  0  0  0  0
   30.3763   30.9739   61.9549 C   0  0  1  0  0  0  0  0  0  0  0  0
   31.6118   31.0781   61.0421 C   0  0  0  0  0  0  0  0  0  0  0  0
   29.2505   31.7064   61.3413 C   0  0  0  0  0  0  0  0  0  0  0  0
   29.3045   32.9218   60.9965 O   0  0  0  0  0  0  0  0  0  0  0  0
   28.0395   31.0114   61.1218 N   0  0  0  0  0  0  0  0  0  0  0  0
   26.8625   31.5689   60.5051 C   0  0  1  0  0  0  0  0  0  0  0  0
   26.2763   30.5522   59.5707 C   0  0  0  0  0  0  0  0  0  0  0  0
   27.3154   30.2300   58.5319 C   0  0  0  0  0  0  0  0  0  0  0  0
   28.4390   30.8041   58.5907 O   0  0  0  0  0  0  0  0  0  0  0  0
   27.0812   29.3230   57.5100 O   0  0  0  0  0  0  0  0  0  0  0  0
   25.8930   31.9340   61.6104 C   0  0  0  0  0  0  0  0  0  0  0  0
   26.2086   31.8639   62.8191 O   0  0  0  0  0  0  0  0  0  0  0  0
   24.6176   32.3527   61.1411 N   0  0  0  0  0  0  0  0  0  0  0  0
   23.5134   32.7678   61.9943 C   0  0  2  0  0  0  0  0  0  0  0  0
   22.6089   31.5872   62.2194 C   0  0  0  0  0  0  0  0  0  0  0  0
   23.0418   30.4837   61.7398 O   0  0  0  0  0  0  0  0  0  0  0  0
   21.3898   31.6036   62.8788 N   0  0  0  0  0  0  0  0  0  0  0  0
   20.6676   30.3248   62.9969 C   0  0  2  0  0  0  0  0  0  0  0  0
   19.8248   30.2399   61.7600 C   0  0  0  0  0  0  0  0  0  0  0  0
   19.9285   31.2210   60.9775 O   0  0  0  0  0  0  0  0  0  0  0  0
   19.0038   29.1147   61.5470 N   0  0  0  0  0  0  0  0  0  0  0  0
   18.1577   28.8982   60.3718 C   0  0  2  0  0  0  0  0  0  0  0  0
   18.9358   28.9865   59.1464 C   0  0  0  0  0  0  0  0  0  0  0  0
   20.1369   29.4632   59.2606 O   0  0  0  0  0  0  0  0  0  0  0  0
   18.6151   28.6349   57.8171 N   0  0  0  0  0  0  0  0  0  0  0  0
   19.6332   28.9369   56.7577 C   0  0  0  0  0  0  0  0  0  0  0  0
   19.5705   27.6831   55.9224 C   0  0  0  0  0  0  0  0  0  0  0  0
   18.0551   27.5728   55.7493 C   0  0  0  0  0  0  0  0  0  0  0  0
   17.5334   27.9836   57.1598 C   0  0  1  0  0  0  0  0  0  0  0  0
   17.1356   26.6736   57.7828 C   0  0  0  0  0  0  0  0  0  0  0  0
   16.2609   26.5697   58.6736 O   0  0  0  0  0  0  0  0  0  0  0  0
   17.7427   25.4717   57.3858 O   0  0  0  0  0  0  0  0  0  0  0  0
   16.8680   29.6206   60.4603 C   0  0  1  0  0  0  0  0  0  0  0  0
   16.9865   31.1074   60.7228 C   0  0  0  0  0  0  0  0  0  0  0  0
   16.0280   29.4920   59.3622 O   0  0  0  0  0  0  0  0  0  0  0  0
   19.9319   30.3129   64.2692 C   0  0  1  0  0  0  0  0  0  0  0  0
   18.8856   31.4054   64.3849 C   0  0  0  0  0  0  0  0  0  0  0  0
   19.2135   29.1102   64.4874 O   0  0  0  0  0  0  0  0  0  0  0  0
   22.8328   33.9801   61.4832 C   0  0  1  0  0  0  0  0  0  0  0  0
   22.3586   33.8514   60.0558 C   0  0  0  0  0  0  0  0  0  0  0  0
   21.8014   34.3693   62.2992 O   0  0  0  0  0  0  0  0  0  0  0  0
  1  2  1  0
  2  3  1  0
  3  4  1  1
  3  5  1  0
  5  6  2  0
  5  7  1  0
  7  8  1  0
  8  9  1  6
  8 10  1  0
 10 11  2  0
 10 12  1  0
 12 13  1  0
 13 14  1  6
 14 15  1  0
 15 16  2  0
 15 17  1  0
 13 18  1  0
 18 19  2  0
 18 20  1  0
 21 20  1  6
 21 22  1  0
 22 23  2  0
 22 24  1  0
 25 24  1  6
 25 26  1  0
 26 27  2  0
 26 28  1  0
 29 28  1  1
 29 30  1  0
 30 31  2  0
 30 32  1  0
 32 33  1  0
 33 34  1  0
 34 35  1  0
 35 36  1  0
 36 37  1  1
 37 38  2  0
 37 39  1  0
 29 40  1  0
 40 41  1  6
 40 42  1  0
 25 43  1  0
 43 44  1  6
 43 45  1  0
 21 46  1  0
 46 47  1  6
 46 48  1  0
 36 32  1  0
M  CHG  3   4   1  17  -1  39  -1
M  END
>  <shape_align_shape_tanimoto>  (1) 
0.55839958816881086

>  <shape_align_color_tanimoto>  (1) 
0.043690511204202212

>  <metric>  (1) 
shape

>  <metric_score>  (1) 
0.558

>  <template_pid>  (1) 
6I5P

>  <template_shape_score>  (1) 
0.558

>  <template_color_score>  (1) 
0.044

>  <template_combo_score>  (1) 
0.301

$$$$
6I5P_color_pose
     RDKit          3D

 48 48  0  0  0  0  0  0  0  0999 V2000
   16.6034   21.8906   52.3069 C   0  0  0  0  0  0  0  0  0  0  0  0
   17.7411   22.7715   51.8417 C   0  0  0  0  0  0  0  0  0  0  0  0
   18.4999   23.3956   52.9784 C   0  0  2  0  0  0  0  0  0  0  0  0
   19.0974   22.4593   53.8670 N   0  0  0  0  0  0  0  0  0  0  0  0
   17.6921   24.3815   53.7487 C   0  0  0  0  0  0  0  0  0  0  0  0
   17.1224   25.2810   53.0450 O   0  0  0  0  0  0  0  0  0  0  0  0
   17.5569   24.3371   55.1631 N   0  0  0  0  0  0  0  0  0  0  0  0
   16.7534   25.3455   55.8648 C   0  0  1  0  0  0  0  0  0  0  0  0
   15.5575   24.5892   56.4347 C   0  0  0  0  0  0  0  0  0  0  0  0
   17.5362   25.9932   56.9264 C   0  0  0  0  0  0  0  0  0  0  0  0
   18.7073   25.5259   57.1595 O   0  0  0  0  0  0  0  0  0  0  0  0
   17.0975   27.0931   57.7101 N   0  0  0  0  0  0  0  0  0  0  0  0
   18.0373   27.5717   58.7182 C   0  0  1  0  0  0  0  0  0  0  0  0
   18.8320   28.6775   57.9580 C   0  0  0  0  0  0  0  0  0  0  0  0
   17.8725   29.7219   57.5048 C   0  0  0  0  0  0  0  0  0  0  0  0
   17.1757   29.5795   56.4533 O   0  0  0  0  0  0  0  0  0  0  0  0
   17.6905   30.9191   58.2212 O   0  0  0  0  0  0  0  0  0  0  0  0
   17.4266   28.1726   59.8935 C   0  0  0  0  0  0  0  0  0  0  0  0
   16.2006   28.4641   59.9171 O   0  0  0  0  0  0  0  0  0  0  0  0
   18.2664   28.4282   61.0431 N   0  0  0  0  0  0  0  0  0  0  0  0
   17.6572   29.0330   62.1728 C   0  0  2  0  0  0  0  0  0  0  0  0
   18.5734   29.9803   62.8221 C   0  0  0  0  0  0  0  0  0  0  0  0
   18.1315   30.7154   63.7768 O   0  0  0  0  0  0  0  0  0  0  0  0
   19.9385   30.1543   62.4830 N   0  0  0  0  0  0  0  0  0  0  0  0
   20.7684   31.1495   63.2260 C   0  0  2  0  0  0  0  0  0  0  0  0
   21.7730   31.5943   62.2406 C   0  0  0  0  0  0  0  0  0  0  0  0
   21.6846   31.0609   61.0878 O   0  0  0  0  0  0  0  0  0  0  0  0
   22.7950   32.5168   62.4314 N   0  0  0  0  0  0  0  0  0  0  0  0
   23.7229   32.8272   61.3346 C   0  0  2  0  0  0  0  0  0  0  0  0
   24.8880   31.9647   61.5938 C   0  0  0  0  0  0  0  0  0  0  0  0
   24.9296   31.4345   62.7622 O   0  0  0  0  0  0  0  0  0  0  0  0
   25.9660   31.6347   60.7459 N   0  0  0  0  0  0  0  0  0  0  0  0
   27.0458   30.7942   61.3817 C   0  0  0  0  0  0  0  0  0  0  0  0
   28.0377   30.5308   60.3095 C   0  0  0  0  0  0  0  0  0  0  0  0
   27.2626   30.7019   59.0441 C   0  0  0  0  0  0  0  0  0  0  0  0
   26.2936   31.8814   59.3827 C   0  0  1  0  0  0  0  0  0  0  0  0
   25.1918   31.8155   58.3994 C   0  0  0  0  0  0  0  0  0  0  0  0
   24.4576   32.7384   58.0194 O   0  0  0  0  0  0  0  0  0  0  0  0
   24.9284   30.5533   57.8114 O   0  0  0  0  0  0  0  0  0  0  0  0
   24.1710   34.2288   61.3641 C   0  0  1  0  0  0  0  0  0  0  0  0
   24.8837   34.5870   62.6733 C   0  0  0  0  0  0  0  0  0  0  0  0
   25.0676   34.4717   60.3443 O   0  0  0  0  0  0  0  0  0  0  0  0
   21.5084   30.3801   64.3234 C   0  0  1  0  0  0  0  0  0  0  0  0
   22.2602   31.3388   65.2169 C   0  0  0  0  0  0  0  0  0  0  0  0
   20.5774   29.7110   65.1400 O   0  0  0  0  0  0  0  0  0  0  0  0
   17.1867   28.0758   63.2344 C   0  0  1  0  0  0  0  0  0  0  0  0
   15.9494   27.3232   62.8096 C   0  0  0  0  0  0  0  0  0  0  0  0
   18.1634   27.2786   63.7781 O   0  0  0  0  0  0  0  0  0  0  0  0
  1  2  1  0
  2  3  1  0
  3  4  1  1
  3  5  1  0
  5  6  2  0
  5  7  1  0
  7  8  1  0
  8  9  1  1
  8 10  1  0
 10 11  2  0
 10 12  1  0
 12 13  1  0
 13 14  1  6
 14 15  1  0
 15 16  2  0
 15 17  1  0
 13 18  1  0
 18 19  2  0
 18 20  1  0
 21 20  1  6
 21 22  1  0
 22 23  2  0
 22 24  1  0
 25 24  1  6
 25 26  1  0
 26 27  2  0
 26 28  1  0
 29 28  1  1
 29 30  1  0
 30 31  2  0
 30 32  1  0
 32 33  1  0
 33 34  1  0
 34 35  1  0
 35 36  1  0
 36 37  1  6
 37 38  2  0
 37 39  1  0
 29 40  1  0
 40 41  1  1
 40 42  1  0
 25 43  1  0
 43 44  1  1
 43 45  1  0
 21 46  1  0
 46 47  1  6
 46 48  1  0
 36 32  1  0
M  CHG  3   4   1  17  -1  39  -1
M  END
>  <shape_align_shape_tanimoto>  (2) 
0.47729143080460817

>  <shape_align_color_tanimoto>  (2) 
0.064720561779973401

>  <metric>  (2) 
color

>  <metric_score>  (2) 
0.065

>  <template_pid>  (2) 
6I5P

>  <template_shape_score>  (2) 
0.477

>  <template_color_score>  (2) 
0.065

>  <template_combo_score>  (2) 
0.271

$$$$
6I5P_combo_pose
     RDKit          3D

 48 48  0  0  0  0  0  0  0  0999 V2000
   27.5936   27.4550   62.8053 C   0  0  0  0  0  0  0  0  0  0  0  0
   28.6032   27.0991   63.8547 C   0  0  0  0  0  0  0  0  0  0  0  0
   30.0404   27.3823   63.4791 C   0  0  2  0  0  0  0  0  0  0  0  0
   30.8425   26.9441   64.6446 N   0  0  0  0  0  0  0  0  0  0  0  0
   30.3338   28.8250   63.2997 C   0  0  0  0  0  0  0  0  0  0  0  0
   30.8567   29.4659   64.2815 O   0  0  0  0  0  0  0  0  0  0  0  0
   30.0942   29.5686   62.1340 N   0  0  0  0  0  0  0  0  0  0  0  0
   30.3763   30.9739   61.9549 C   0  0  1  0  0  0  0  0  0  0  0  0
   31.6118   31.0781   61.0421 C   0  0  0  0  0  0  0  0  0  0  0  0
   29.2505   31.7064   61.3413 C   0  0  0  0  0  0  0  0  0  0  0  0
   29.3045   32.9218   60.9965 O   0  0  0  0  0  0  0  0  0  0  0  0
   28.0395   31.0114   61.1218 N   0  0  0  0  0  0  0  0  0  0  0  0
   26.8625   31.5689   60.5051 C   0  0  1  0  0  0  0  0  0  0  0  0
   26.2763   30.5522   59.5707 C   0  0  0  0  0  0  0  0  0  0  0  0
   27.3154   30.2300   58.5319 C   0  0  0  0  0  0  0  0  0  0  0  0
   28.4390   30.8041   58.5907 O   0  0  0  0  0  0  0  0  0  0  0  0
   27.0812   29.3230   57.5100 O   0  0  0  0  0  0  0  0  0  0  0  0
   25.8930   31.9340   61.6104 C   0  0  0  0  0  0  0  0  0  0  0  0
   26.2086   31.8639   62.8191 O   0  0  0  0  0  0  0  0  0  0  0  0
   24.6176   32.3527   61.1411 N   0  0  0  0  0  0  0  0  0  0  0  0
   23.5134   32.7678   61.9943 C   0  0  2  0  0  0  0  0  0  0  0  0
   22.6089   31.5872   62.2194 C   0  0  0  0  0  0  0  0  0  0  0  0
   23.0418   30.4837   61.7398 O   0  0  0  0  0  0  0  0  0  0  0  0
   21.3898   31.6036   62.8788 N   0  0  0  0  0  0  0  0  0  0  0  0
   20.6676   30.3248   62.9969 C   0  0  2  0  0  0  0  0  0  0  0  0
   19.8248   30.2399   61.7600 C   0  0  0  0  0  0  0  0  0  0  0  0
   19.9285   31.2210   60.9775 O   0  0  0  0  0  0  0  0  0  0  0  0
   19.0038   29.1147   61.5470 N   0  0  0  0  0  0  0  0  0  0  0  0
   18.1577   28.8982   60.3718 C   0  0  2  0  0  0  0  0  0  0  0  0
   18.9358   28.9865   59.1464 C   0  0  0  0  0  0  0  0  0  0  0  0
   20.1369   29.4632   59.2606 O   0  0  0  0  0  0  0  0  0  0  0  0
   18.6151   28.6349   57.8171 N   0  0  0  0  0  0  0  0  0  0  0  0
   19.6332   28.9369   56.7577 C   0  0  0  0  0  0  0  0  0  0  0  0
   19.5705   27.6831   55.9224 C   0  0  0  0  0  0  0  0  0  0  0  0
   18.0551   27.5728   55.7493 C   0  0  0  0  0  0  0  0  0  0  0  0
   17.5334   27.9836   57.1598 C   0  0  1  0  0  0  0  0  0  0  0  0
   17.1356   26.6736   57.7828 C   0  0  0  0  0  0  0  0  0  0  0  0
   16.2609   26.5697   58.6736 O   0  0  0  0  0  0  0  0  0  0  0  0
   17.7427   25.4717   57.3858 O   0  0  0  0  0  0  0  0  0  0  0  0
   16.8680   29.6206   60.4603 C   0  0  1  0  0  0  0  0  0  0  0  0
   16.9865   31.1074   60.7228 C   0  0  0  0  0  0  0  0  0  0  0  0
   16.0280   29.4920   59.3622 O   0  0  0  0  0  0  0  0  0  0  0  0
   19.9319   30.3129   64.2692 C   0  0  1  0  0  0  0  0  0  0  0  0
   18.8856   31.4054   64.3849 C   0  0  0  0  0  0  0  0  0  0  0  0
   19.2135   29.1102   64.4874 O   0  0  0  0  0  0  0  0  0  0  0  0
   22.8328   33.9801   61.4832 C   0  0  1  0  0  0  0  0  0  0  0  0
   22.3586   33.8514   60.0558 C   0  0  0  0  0  0  0  0  0  0  0  0
   21.8014   34.3693   62.2992 O   0  0  0  0  0  0  0  0  0  0  0  0
  1  2  1  0
  2  3  1  0
  3  4  1  1
  3  5  1  0
  5  6  2  0
  5  7  1  0
  7  8  1  0
  8  9  1  6
  8 10  1  0
 10 11  2  0
 10 12  1  0
 12 13  1  0
 13 14  1  6
 14 15  1  0
 15 16  2  0
 15 17  1  0
 13 18  1  0
 18 19  2  0
 18 20  1  0
 21 20  1  6
 21 22  1  0
 22 23  2  0
 22 24  1  0
 25 24  1  6
 25 26  1  0
 26 27  2  0
 26 28  1  0
 29 28  1  1
 29 30  1  0
 30 31  2  0
 30 32  1  0
 32 33  1  0
 33 34  1  0
 34 35  1  0
 35 36  1  0
 36 37  1  1
 37 38  2  0
 37 39  1  0
 29 40  1  0
 40 41  1  6
 40 42  1  0
 25 43  1  0
 43 44  1  6
 43 45  1  0
 21 46  1  0
 46 47  1  6
 46 48  1  0
 36 32  1  0
M  CHG  3   4   1  17  -1  39  -1
M  END
>  <shape_align_shape_tanimoto>  (3) 
0.55839958816881086

>  <shape_align_color_tanimoto>  (3) 
0.043690511204202212

>  <metric>  (3) 
combo

>  <metric_score>  (3) 
0.301

>  <template_pid>  (3) 
6I5P

>  <template_shape_score>  (3) 
0.558

>  <template_color_score>  (3) 
0.044

>  <template_combo_score>  (3) 
0.301

$$$$
