3LDW_shape_pose
     RDKit          3D

 16 16  0  0  0  0  0  0  0  0999 V2000
   17.1190   10.5632   11.4228 O   0  0  0  0  0  0  0  0  0  0  0  0
   15.9053    9.9377   10.7430 P   0  0  0  0  0  0  0  0  0  0  0  0
   15.5700   10.7983    9.3325 O   0  0  0  0  0  0  0  0  0  0  0  0
   16.3799    8.3842   10.2660 O   0  0  0  0  0  0  0  0  0  0  0  0
   14.4857    9.9043   11.8808 C   0  0  0  0  0  0  0  0  0  0  0  0
   14.0504    8.5839   11.9069 O   0  0  0  0  0  0  0  0  0  0  0  0
   14.9051   10.4128   13.2102 C   0  0  0  0  0  0  0  0  0  0  0  0
   13.9189   10.4577   14.2283 N   0  0  0  0  0  0  0  0  0  0  0  0
   13.5794    9.5240   15.1277 C   0  0  0  0  0  0  0  0  0  0  0  0
   12.5504    9.9953   15.9448 C   0  0  0  0  0  0  0  0  0  0  0  0
   12.2938   11.2359   15.4992 N   0  0  0  0  0  0  0  0  0  0  0  0
   13.1035   11.5235   14.4755 C   0  0  0  0  0  0  0  0  0  0  0  0
   13.2263   11.0153   11.2013 P   0  0  0  0  0  0  0  0  0  0  0  0
   11.9296   10.9363   11.9847 O   0  0  0  0  0  0  0  0  0  0  0  0
   13.7765   12.5931   11.2948 O   0  0  0  0  0  0  0  0  0  0  0  0
   12.9331   10.5350    9.6071 O   0  0  0  0  0  0  0  0  0  0  0  0
  1  2  2  0
  2  3  1  0
  2  4  1  0
  2  5  1  0
  5  6  1  0
  5  7  1  0
  7  8  1  0
  8  9  1  0
  9 10  2  0
 10 11  1  0
 11 12  2  0
  5 13  1  0
 13 14  2  0
 13 15  1  0
 13 16  1  0
 12  8  1  0
M  END
>  <shape_align_shape_tanimoto>  (1) 
0.5716020138893807

>  <shape_align_color_tanimoto>  (1) 
0.13437268812213918

>  <metric>  (1) 
shape

>  <metric_score>  (1) 
0.572

>  <template_pid>  (1) 
3LDW

>  <template_shape_score>  (1) 
0.572

>  <template_color_score>  (1) 
0.134

>  <template_combo_score>  (1) 
0.353

$$$$
3LDW_color_pose
     RDKit          3D

 16 16  0  0  0  0  0  0  0  0999 V2000
   16.8094    9.5054   11.4516 O   0  0  0  0  0  0  0  0  0  0  0  0
   15.4644    9.9645   10.9416 P   0  0  0  0  0  0  0  0  0  0  0  0
   15.5945   11.1329    9.7484 O   0  0  0  0  0  0  0  0  0  0  0  0
   14.6041    8.6300   10.4146 O   0  0  0  0  0  0  0  0  0  0  0  0
   14.5707   10.6732   12.3733 C   0  0  0  0  0  0  0  0  0  0  0  0
   15.3632   11.5931   13.0426 O   0  0  0  0  0  0  0  0  0  0  0  0
   14.2738    9.5267   13.2802 C   0  0  0  0  0  0  0  0  0  0  0  0
   13.5693    9.8521   14.4814 N   0  0  0  0  0  0  0  0  0  0  0  0
   12.2465    9.9013   14.7374 C   0  0  0  0  0  0  0  0  0  0  0  0
   12.0714   10.2632   16.0362 C   0  0  0  0  0  0  0  0  0  0  0  0
   13.2873   10.4408   16.5938 N   0  0  0  0  0  0  0  0  0  0  0  0
   14.1889   10.1888   15.6418 C   0  0  0  0  0  0  0  0  0  0  0  0
   13.0805   11.4594   11.7134 P   0  0  0  0  0  0  0  0  0  0  0  0
   12.2846   10.4791   10.8840 O   0  0  0  0  0  0  0  0  0  0  0  0
   13.5738   12.6807   10.6317 O   0  0  0  0  0  0  0  0  0  0  0  0
   12.0947   12.1146   12.8939 O   0  0  0  0  0  0  0  0  0  0  0  0
  1  2  2  0
  2  3  1  0
  2  4  1  0
  2  5  1  0
  5  6  1  0
  5  7  1  0
  7  8  1  0
  8  9  1  0
  9 10  2  0
 10 11  1  0
 11 12  2  0
  5 13  1  0
 13 14  2  0
 13 15  1  0
 13 16  1  0
 12  8  1  0
M  END
>  <shape_align_shape_tanimoto>  (2) 
0.52818303945904144

>  <shape_align_color_tanimoto>  (2) 
0.21341227045923208

>  <metric>  (2) 
color

>  <metric_score>  (2) 
0.213

>  <template_pid>  (2) 
3LDW

>  <template_shape_score>  (2) 
0.528

>  <template_color_score>  (2) 
0.213

>  <template_combo_score>  (2) 
0.371

$$$$
3LDW_combo_pose
     RDKit          3D

 16 16  0  0  0  0  0  0  0  0999 V2000
   16.8094    9.5054   11.4516 O   0  0  0  0  0  0  0  0  0  0  0  0
   15.4644    9.9645   10.9416 P   0  0  0  0  0  0  0  0  0  0  0  0
   15.5945   11.1329    9.7484 O   0  0  0  0  0  0  0  0  0  0  0  0
   14.6041    8.6300   10.4146 O   0  0  0  0  0  0  0  0  0  0  0  0
   14.5707   10.6732   12.3733 C   0  0  0  0  0  0  0  0  0  0  0  0
   15.3632   11.5931   13.0426 O   0  0  0  0  0  0  0  0  0  0  0  0
   14.2738    9.5267   13.2802 C   0  0  0  0  0  0  0  0  0  0  0  0
   13.5693    9.8521   14.4814 N   0  0  0  0  0  0  0  0  0  0  0  0
   12.2465    9.9013   14.7374 C   0  0  0  0  0  0  0  0  0  0  0  0
   12.0714   10.2632   16.0362 C   0  0  0  0  0  0  0  0  0  0  0  0
   13.2873   10.4408   16.5938 N   0  0  0  0  0  0  0  0  0  0  0  0
   14.1889   10.1888   15.6418 C   0  0  0  0  0  0  0  0  0  0  0  0
   13.0805   11.4594   11.7134 P   0  0  0  0  0  0  0  0  0  0  0  0
   12.2846   10.4791   10.8840 O   0  0  0  0  0  0  0  0  0  0  0  0
   13.5738   12.6807   10.6317 O   0  0  0  0  0  0  0  0  0  0  0  0
   12.0947   12.1146   12.8939 O   0  0  0  0  0  0  0  0  0  0  0  0
  1  2  2  0
  2  3  1  0
  2  4  1  0
  2  5  1  0
  5  6  1  0
  5  7  1  0
  7  8  1  0
  8  9  1  0
  9 10  2  0
 10 11  1  0
 11 12  2  0
  5 13  1  0
 13 14  2  0
 13 15  1  0
 13 16  1  0
 12  8  1  0
M  END
>  <shape_align_shape_tanimoto>  (3) 
0.52818303945904144

>  <shape_align_color_tanimoto>  (3) 
0.21341227045923208

>  <metric>  (3) 
combo

>  <metric_score>  (3) 
0.371

>  <template_pid>  (3) 
3LDW

>  <template_shape_score>  (3) 
0.528

>  <template_color_score>  (3) 
0.213

>  <template_combo_score>  (3) 
0.371

$$$$
