1PMV_shape_pose
     RDKit          3D

 17 20  0  0  0  0  0  0  0  0999 V2000
  -15.9706   15.3397   42.8806 O   0  0  0  0  0  0  0  0  0  0  0  0
  -15.8358   14.3134   42.1673 C   0  0  0  0  0  0  0  0  0  0  0  0
  -14.5839   13.9432   41.5177 C   0  0  0  0  0  0  0  0  0  0  0  0
  -13.4707   14.7423   41.6760 C   0  0  0  0  0  0  0  0  0  0  0  0
  -12.2622   14.4357   41.0821 C   0  0  0  0  0  0  0  0  0  0  0  0
  -12.1937   13.2769   40.3039 C   0  0  0  0  0  0  0  0  0  0  0  0
  -13.3005   12.4571   40.1300 C   0  0  0  0  0  0  0  0  0  0  0  0
  -14.4704   12.7928   40.7303 C   0  0  0  0  0  0  0  0  0  0  0  0
  -15.6420   11.9452   40.5593 C   0  0  0  0  0  0  0  0  0  0  0  0
  -15.9263   10.7987   39.9042 N   0  0  0  0  0  0  0  0  0  0  0  0
  -17.2165   10.4715   40.1114 N   0  0  0  0  0  0  0  0  0  0  0  0
  -17.7935   11.3942   40.9013 C   0  0  0  0  0  0  0  0  0  0  0  0
  -19.0347   11.6176   41.4517 C   0  0  0  0  0  0  0  0  0  0  0  0
  -19.2394   12.7410   42.2512 C   0  0  0  0  0  0  0  0  0  0  0  0
  -18.2200   13.6482   42.5106 C   0  0  0  0  0  0  0  0  0  0  0  0
  -16.9743   13.4245   41.9586 C   0  0  0  0  0  0  0  0  0  0  0  0
  -16.8074   12.3098   41.1771 C   0  0  0  0  0  0  0  0  0  0  0  0
  1  2  2  0
  2  3  1  0
  3  4  2  0
  4  5  1  0
  5  6  2  0
  6  7  1  0
  7  8  2  0
  8  9  1  0
  9 10  2  0
 10 11  1  0
 11 12  1  0
 12 13  1  0
 13 14  2  0
 14 15  1  0
 15 16  2  0
 16 17  1  0
 16  2  1  0
  8  3  1  0
 17  9  1  0
 17 12  2  0
M  END
>  <shape_align_shape_tanimoto>  (1) 
0.54879637135584858

>  <shape_align_color_tanimoto>  (1) 
0.067774421652832678

>  <metric>  (1) 
shape

>  <metric_score>  (1) 
0.549

>  <template_pid>  (1) 
1PMV

>  <template_shape_score>  (1) 
0.549

>  <template_color_score>  (1) 
0.068

>  <template_combo_score>  (1) 
0.308

$$$$
1PMV_color_pose
     RDKit          3D

 17 20  0  0  0  0  0  0  0  0999 V2000
  -15.9041   15.6208   43.2131 O   0  0  0  0  0  0  0  0  0  0  0  0
  -16.1671   14.5944   42.5740 C   0  0  0  0  0  0  0  0  0  0  0  0
  -15.1901   13.8973   41.7206 C   0  0  0  0  0  0  0  0  0  0  0  0
  -13.9049   14.3972   41.6121 C   0  0  0  0  0  0  0  0  0  0  0  0
  -13.0090   13.7243   40.8055 C   0  0  0  0  0  0  0  0  0  0  0  0
  -13.3280   12.5833   40.1045 C   0  0  0  0  0  0  0  0  0  0  0  0
  -14.6256   12.0788   40.2142 C   0  0  0  0  0  0  0  0  0  0  0  0
  -15.5161   12.7509   41.0183 C   0  0  0  0  0  0  0  0  0  0  0  0
  -16.8658   12.2121   41.1223 C   0  0  0  0  0  0  0  0  0  0  0  0
  -17.5414   11.1642   40.6174 N   0  0  0  0  0  0  0  0  0  0  0  0
  -18.8037   11.1739   41.0823 N   0  0  0  0  0  0  0  0  0  0  0  0
  -18.9768   12.2255   41.8978 C   0  0  0  0  0  0  0  0  0  0  0  0
  -19.9947   12.7642   42.6527 C   0  0  0  0  0  0  0  0  0  0  0  0
  -19.7577   13.9095   43.3864 C   0  0  0  0  0  0  0  0  0  0  0  0
  -18.5256   14.5512   43.3987 C   0  0  0  0  0  0  0  0  0  0  0  0
  -17.4979   14.0078   42.6369 C   0  0  0  0  0  0  0  0  0  0  0  0
  -17.7653   12.8753   41.9233 C   0  0  0  0  0  0  0  0  0  0  0  0
  1  2  2  0
  2  3  1  0
  3  4  2  0
  4  5  1  0
  5  6  2  0
  6  7  1  0
  7  8  2  0
  8  9  1  0
  9 10  2  0
 10 11  1  0
 11 12  1  0
 12 13  1  0
 13 14  2  0
 14 15  1  0
 15 16  2  0
 16 17  1  0
 16  2  1  0
  8  3  1  0
 17  9  1  0
 17 12  2  0
M  END
>  <shape_align_shape_tanimoto>  (2) 
0.53568305576164432

>  <shape_align_color_tanimoto>  (2) 
0.14014021304024996

>  <metric>  (2) 
color

>  <metric_score>  (2) 
0.140

>  <template_pid>  (2) 
1PMV

>  <template_shape_score>  (2) 
0.536

>  <template_color_score>  (2) 
0.140

>  <template_combo_score>  (2) 
0.338

$$$$
1PMV_combo_pose
     RDKit          3D

 17 20  0  0  0  0  0  0  0  0999 V2000
  -15.9041   15.6208   43.2131 O   0  0  0  0  0  0  0  0  0  0  0  0
  -16.1671   14.5944   42.5740 C   0  0  0  0  0  0  0  0  0  0  0  0
  -15.1901   13.8973   41.7206 C   0  0  0  0  0  0  0  0  0  0  0  0
  -13.9049   14.3972   41.6121 C   0  0  0  0  0  0  0  0  0  0  0  0
  -13.0090   13.7243   40.8055 C   0  0  0  0  0  0  0  0  0  0  0  0
  -13.3280   12.5833   40.1045 C   0  0  0  0  0  0  0  0  0  0  0  0
  -14.6256   12.0788   40.2142 C   0  0  0  0  0  0  0  0  0  0  0  0
  -15.5161   12.7509   41.0183 C   0  0  0  0  0  0  0  0  0  0  0  0
  -16.8658   12.2121   41.1223 C   0  0  0  0  0  0  0  0  0  0  0  0
  -17.5414   11.1642   40.6174 N   0  0  0  0  0  0  0  0  0  0  0  0
  -18.8037   11.1739   41.0823 N   0  0  0  0  0  0  0  0  0  0  0  0
  -18.9768   12.2255   41.8978 C   0  0  0  0  0  0  0  0  0  0  0  0
  -19.9947   12.7642   42.6527 C   0  0  0  0  0  0  0  0  0  0  0  0
  -19.7577   13.9095   43.3864 C   0  0  0  0  0  0  0  0  0  0  0  0
  -18.5256   14.5512   43.3987 C   0  0  0  0  0  0  0  0  0  0  0  0
  -17.4979   14.0078   42.6369 C   0  0  0  0  0  0  0  0  0  0  0  0
  -17.7653   12.8753   41.9233 C   0  0  0  0  0  0  0  0  0  0  0  0
  1  2  2  0
  2  3  1  0
  3  4  2  0
  4  5  1  0
  5  6  2  0
  6  7  1  0
  7  8  2  0
  8  9  1  0
  9 10  2  0
 10 11  1  0
 11 12  1  0
 12 13  1  0
 13 14  2  0
 14 15  1  0
 15 16  2  0
 16 17  1  0
 16  2  1  0
  8  3  1  0
 17  9  1  0
 17 12  2  0
M  END
>  <shape_align_shape_tanimoto>  (3) 
0.53568305576164432

>  <shape_align_color_tanimoto>  (3) 
0.14014021304024996

>  <metric>  (3) 
combo

>  <metric_score>  (3) 
0.338

>  <template_pid>  (3) 
1PMV

>  <template_shape_score>  (3) 
0.536

>  <template_color_score>  (3) 
0.140

>  <template_combo_score>  (3) 
0.338

$$$$
