6E5X_shape_pose
     RDKit          3D

102111  0  0  0  0  0  0  0  0999 V2000
   -5.1202   27.0696  -24.7058 C   0  0  0  0  0  0  0  0  0  0  0  0
   -5.4867   26.4518  -23.3366 C   0  0  0  0  0  0  0  0  0  0  0  0
   -6.6966   25.5978  -23.5226 C   0  0  0  0  0  0  0  0  0  0  0  0
   -4.2529   25.8096  -22.8086 C   0  0  0  0  0  0  0  0  0  0  0  0
   -4.3385   25.1238  -21.4589 C   0  0  2  0  0  0  0  0  0  0  0  0
   -5.2750   24.0267  -21.3653 N   0  0  0  0  0  0  0  0  0  0  0  0
   -5.0585   22.6668  -21.6415 C   0  0  0  0  0  0  0  0  0  0  0  0
   -3.8655   22.3307  -22.0211 O   0  0  0  0  0  0  0  0  0  0  0  0
   -6.0443   21.5571  -21.5566 C   0  0  2  0  0  0  0  0  0  0  0  0
   -6.3053   21.0179  -22.9735 C   0  0  0  0  0  0  0  0  0  0  0  0
   -7.5926   21.7331  -23.3629 C   0  0  0  0  0  0  0  0  0  0  0  0
   -8.1049   22.4523  -22.1223 C   0  0  0  0  0  0  0  0  0  0  0  0
   -7.3374   21.8673  -21.0081 N   0  0  0  0  0  0  0  0  0  0  0  0
   -7.8009   21.6848  -19.6319 C   0  0  0  0  0  0  0  0  0  0  0  0
   -6.9920   21.0102  -18.9075 O   0  0  0  0  0  0  0  0  0  0  0  0
   -9.0910   22.2449  -19.1482 C   0  0  2  0  0  0  0  0  0  0  0  0
   -8.6142   23.2621  -18.0362 C   0  0  0  0  0  0  0  0  0  0  0  0
   -8.2625   22.2636  -16.9330 C   0  0  0  0  0  0  0  0  0  0  0  0
   -9.0740   20.9918  -17.2030 C   0  0  0  0  0  0  0  0  0  0  0  0
   -9.9421   21.3743  -18.3422 N   0  0  0  0  0  0  0  0  0  0  0  0
  -11.3146   21.0136  -18.5738 C   0  0  0  0  0  0  0  0  0  0  0  0
  -11.8601   21.5200  -19.6169 O   0  0  0  0  0  0  0  0  0  0  0  0
  -12.0440   20.1188  -17.6594 C   0  0  2  0  0  0  0  0  0  0  0  0
  -12.0193   18.7244  -18.3113 C   0  0  0  0  0  0  0  0  0  0  0  0
  -13.0948   18.9320  -19.3823 C   0  0  0  0  0  0  0  0  0  0  0  0
  -14.1896   19.6427  -18.6249 C   0  0  0  0  0  0  0  0  0  0  0  0
  -13.5155   20.4164  -17.5926 N   0  0  0  0  0  0  0  0  0  0  0  0
  -14.0098   21.3245  -16.6097 C   0  0  0  0  0  0  0  0  0  0  0  0
  -13.0817   21.8310  -15.8197 O   0  0  0  0  0  0  0  0  0  0  0  0
  -15.3573   21.7946  -16.3199 C   0  0  2  0  0  0  0  0  0  0  0  0
  -15.8100   20.9896  -15.0468 C   0  0  0  0  0  0  0  0  0  0  0  0
  -16.4248   19.7232  -15.6747 C   0  0  0  0  0  0  0  0  0  0  0  0
  -17.0483   20.2450  -16.9422 C   0  0  0  0  0  0  0  0  0  0  0  0
  -16.4398   21.5800  -17.2208 N   0  0  0  0  0  0  0  0  0  0  0  0
  -16.9986   22.3811  -18.2779 C   0  0  0  0  0  0  0  0  0  0  0  0
  -17.9143   21.7713  -18.9674 O   0  0  0  0  0  0  0  0  0  0  0  0
  -16.6756   23.7506  -18.6504 C   0  0  1  0  0  0  0  0  0  0  0  0
  -15.7840   24.5128  -17.7947 N   0  0  0  0  0  0  0  0  0  0  0  0
  -16.3885   25.4367  -16.8704 C   0  0  0  0  0  0  0  0  0  0  0  0
  -17.6730   25.5643  -16.7902 O   0  0  0  0  0  0  0  0  0  0  0  0
  -15.6144   26.3190  -15.9350 C   0  0  2  0  0  0  0  0  0  0  0  0
  -16.1684   27.7282  -15.8947 C   0  0  0  0  0  0  0  0  0  0  0  0
  -15.1022   28.6003  -16.5487 C   0  0  0  0  0  0  0  0  0  0  0  0
  -14.2935   27.5653  -17.3509 C   0  0  0  0  0  0  0  0  0  0  0  0
  -14.1947   26.4756  -16.3887 N   0  0  0  0  0  0  0  0  0  0  0  0
  -13.1445   25.6682  -15.9130 C   0  0  0  0  0  0  0  0  0  0  0  0
  -13.4477   24.7909  -15.0073 O   0  0  0  0  0  0  0  0  0  0  0  0
  -11.7103   25.6848  -16.3162 C   0  0  1  0  0  0  0  0  0  0  0  0
  -11.3403   26.6781  -17.3147 N   0  0  0  0  0  0  0  0  0  0  0  0
  -11.1958   26.3740  -18.7222 C   0  0  0  0  0  0  0  0  0  0  0  0
  -11.4129   25.1941  -19.1787 O   0  0  0  0  0  0  0  0  0  0  0  0
  -10.7889   27.4040  -19.7269 C   0  0  1  0  0  0  0  0  0  0  0  0
  -10.1817   28.5886  -19.1540 N   0  0  0  0  0  0  0  0  0  0  0  0
   -9.9224   26.8501  -20.8546 C   0  0  0  0  0  0  0  0  0  0  0  0
   -9.5173   27.9112  -21.8345 C   0  0  0  0  0  0  0  0  0  0  0  0
   -8.2783   28.5663  -21.6102 C   0  0  0  0  0  0  0  0  0  0  0  0
   -7.8844   29.5663  -22.5146 C   0  0  0  0  0  0  0  0  0  0  0  0
   -8.6530   29.9232  -23.5925 C   0  0  0  0  0  0  0  0  0  0  0  0
   -9.8696   29.2670  -23.7975 C   0  0  0  0  0  0  0  0  0  0  0  0
  -10.3154   28.2664  -22.9365 C   0  0  0  0  0  0  0  0  0  0  0  0
  -10.8580   25.8448  -15.0501 C   0  0  0  0  0  0  0  0  0  0  0  0
  -11.1122   24.6582  -14.1433 C   0  0  0  0  0  0  0  0  0  0  0  0
   -9.3788   25.9548  -15.3386 C   0  0  0  0  0  0  0  0  0  0  0  0
  -16.2752   23.8225  -20.1156 C   0  0  0  0  0  0  0  0  0  0  0  0
  -17.4603   23.3375  -20.9429 C   0  0  0  0  0  0  0  0  0  0  0  0
  -15.0815   22.9617  -20.4601 C   0  0  0  0  0  0  0  0  0  0  0  0
   -4.5352   26.1827  -20.4448 C   0  0  0  0  0  0  0  0  0  0  0  0
   -4.1504   27.3901  -20.7088 O   0  0  0  0  0  0  0  0  0  0  0  0
   -5.1302   26.0117  -19.1524 N   0  0  0  0  0  0  0  0  0  0  0  0
   -5.2768   27.2575  -18.3567 C   0  0  1  0  0  0  0  0  0  0  0  0
   -5.9860   26.9142  -17.0787 C   0  0  0  0  0  0  0  0  0  0  0  0
   -5.2558   25.9756  -16.1838 C   0  0  0  0  0  0  0  0  0  0  0  0
   -4.3728   26.5677  -15.2518 C   0  0  0  0  0  0  0  0  0  0  0  0
   -3.6302   25.8499  -14.3448 C   0  0  0  0  0  0  0  0  0  0  0  0
   -3.7529   24.4647  -14.3419 C   0  0  0  0  0  0  0  0  0  0  0  0
   -3.0273   23.6501  -13.4454 O   0  0  0  0  0  0  0  0  0  0  0  0
   -4.6126   23.8209  -15.2418 C   0  0  0  0  0  0  0  0  0  0  0  0
   -5.3524   24.6095  -16.1523 C   0  0  0  0  0  0  0  0  0  0  0  0
   -3.8824   27.7930  -18.0599 C   0  0  0  0  0  0  0  0  0  0  0  0
   -2.8850   27.0298  -18.2782 O   0  0  0  0  0  0  0  0  0  0  0  0
   -3.6048   29.0978  -17.5568 N   0  0  0  0  0  0  0  0  0  0  0  0
   -2.1853   29.4799  -17.2825 C   0  0  0  0  0  0  0  0  0  0  0  0
   -2.2321   30.9655  -17.0053 C   0  0  0  0  0  0  0  0  0  0  0  0
   -3.6380   31.1460  -16.3940 C   0  0  0  0  0  0  0  0  0  0  0  0
   -4.4876   30.2473  -17.2774 C   0  0  1  0  0  0  0  0  0  0  0  0
   -4.9119   30.9053  -18.5223 C   0  0  0  0  0  0  0  0  0  0  0  0
   -4.4515   30.3441  -19.6209 O   0  0  0  0  0  0  0  0  0  0  0  0
   -5.7248   32.0324  -18.7608 N   0  0  0  0  0  0  0  0  0  0  0  0
   -5.9498   32.4164  -20.2271 C   0  0  0  0  0  0  0  0  0  0  0  0
   -7.3382   32.9783  -20.2739 C   0  0  0  0  0  0  0  0  0  0  0  0
   -7.8114   32.9988  -18.8272 C   0  0  0  0  0  0  0  0  0  0  0  0
   -6.4451   33.0417  -18.0726 C   0  0  1  0  0  0  0  0  0  0  0  0
   -6.6561   33.0449  -16.6287 C   0  0  0  0  0  0  0  0  0  0  0  0
   -6.0667   34.0225  -15.9806 O   0  0  0  0  0  0  0  0  0  0  0  0
   -7.4251   32.1336  -15.8330 N   0  0  0  0  0  0  0  0  0  0  0  0
   -8.1525   30.9277  -16.2281 C   0  0  0  0  0  0  0  0  0  0  0  0
   -8.1289   30.0506  -14.9870 C   0  0  0  0  0  0  0  0  0  0  0  0
   -7.3553   30.8752  -13.9217 C   0  0  0  0  0  0  0  0  0  0  0  0
   -7.6626   32.3287  -14.3966 C   0  0  1  0  0  0  0  0  0  0  0  0
   -6.8440   33.3228  -13.7146 C   0  0  0  0  0  0  0  0  0  0  0  0
   -7.1708   34.5691  -13.7362 O   0  0  0  0  0  0  0  0  0  0  0  0
   -5.6622   33.0360  -12.9919 O   0  0  0  0  0  0  0  0  0  0  0  0
  1  2  1  0
  2  3  1  0
  2  4  1  0
  5  4  1  6
  5  6  1  0
  6  7  1  0
  7  8  2  0
  9  7  1  6
  9 10  1  0
 10 11  1  0
 11 12  1  0
 12 13  1  0
 13 14  1  0
 14 15  2  0
 16 14  1  1
 16 17  1  0
 17 18  1  0
 18 19  1  0
 19 20  1  0
 20 21  1  0
 21 22  2  0
 23 21  1  6
 23 24  1  0
 24 25  1  0
 25 26  1  0
 26 27  1  0
 27 28  1  0
 28 29  2  0
 30 28  1  6
 30 31  1  0
 31 32  1  0
 32 33  1  0
 33 34  1  0
 34 35  1  0
 35 36  2  0
 35 37  1  0
 37 38  1  1
 38 39  1  0
 39 40  2  0
 41 39  1  6
 41 42  1  0
 42 43  1  0
 43 44  1  0
 44 45  1  0
 45 46  1  0
 46 47  2  0
 46 48  1  0
 48 49  1  6
 49 50  1  0
 50 51  2  0
 50 52  1  0
 52 53  1  1
 52 54  1  0
 54 55  1  0
 55 56  2  0
 56 57  1  0
 57 58  2  0
 58 59  1  0
 59 60  2  0
 48 61  1  0
 61 62  1  0
 61 63  1  0
 37 64  1  0
 64 65  1  0
 64 66  1  0
  5 67  1  0
 67 68  2  0
 67 69  1  0
 69 70  1  0
 70 71  1  1
 71 72  1  0
 72 73  2  0
 73 74  1  0
 74 75  2  0
 75 76  1  0
 75 77  1  0
 77 78  2  0
 70 79  1  0
 79 80  2  0
 79 81  1  0
 81 82  1  0
 82 83  1  0
 83 84  1  0
 84 85  1  0
 85 86  1  6
 86 87  2  0
 86 88  1  0
 88 89  1  0
 89 90  1  0
 90 91  1  0
 91 92  1  0
 92 93  1  1
 93 94  2  0
 93 95  1  0
 95 96  1  0
 96 97  1  0
 97 98  1  0
 98 99  1  0
 99100  1  1
100101  2  0
100102  1  0
 13  9  1  0
 20 16  1  0
 27 23  1  0
 34 30  1  0
 45 41  1  0
 60 55  1  0
 78 72  1  0
 85 81  1  0
 92 88  1  0
 99 95  1  0
M  CHG  2  53   1 102  -1
M  END
>  <shape_align_shape_tanimoto>  (1) 
0.38721290502724148

>  <shape_align_color_tanimoto>  (1) 
0.027496012400216849

>  <metric>  (1) 
shape

>  <metric_score>  (1) 
0.387

>  <template_pid>  (1) 
6E5X

>  <template_shape_score>  (1) 
0.387

>  <template_color_score>  (1) 
0.027

>  <template_combo_score>  (1) 
0.207

$$$$
6E5X_color_pose
     RDKit          3D

102111  0  0  0  0  0  0  0  0999 V2000
  -15.3659   25.1055  -22.1995 C   0  0  0  0  0  0  0  0  0  0  0  0
  -16.4976   25.3167  -21.2021 C   0  0  0  0  0  0  0  0  0  0  0  0
  -17.7488   25.5935  -22.0389 C   0  0  0  0  0  0  0  0  0  0  0  0
  -16.7775   24.0378  -20.4335 C   0  0  0  0  0  0  0  0  0  0  0  0
  -15.5794   23.5868  -19.6806 C   0  0  2  0  0  0  0  0  0  0  0  0
  -15.8615   22.3419  -18.9414 N   0  0  0  0  0  0  0  0  0  0  0  0
  -14.7447   21.4113  -18.8387 C   0  0  0  0  0  0  0  0  0  0  0  0
  -13.6905   21.7639  -19.3884 O   0  0  0  0  0  0  0  0  0  0  0  0
  -15.0155   20.1734  -18.0894 C   0  0  2  0  0  0  0  0  0  0  0  0
  -15.2969   20.6639  -16.6454 C   0  0  0  0  0  0  0  0  0  0  0  0
  -14.9699   19.5326  -15.7399 C   0  0  0  0  0  0  0  0  0  0  0  0
  -14.1847   18.5813  -16.5933 C   0  0  0  0  0  0  0  0  0  0  0  0
  -13.9232   19.2670  -17.8799 N   0  0  0  0  0  0  0  0  0  0  0  0
  -12.7770   18.9434  -18.6509 C   0  0  0  0  0  0  0  0  0  0  0  0
  -12.6821   19.5605  -19.7856 O   0  0  0  0  0  0  0  0  0  0  0  0
  -11.7008   18.0128  -18.3451 C   0  0  2  0  0  0  0  0  0  0  0  0
  -12.1584   16.5627  -18.3927 C   0  0  0  0  0  0  0  0  0  0  0  0
  -11.6153   15.8699  -17.1833 C   0  0  0  0  0  0  0  0  0  0  0  0
  -10.9414   16.9077  -16.3551 C   0  0  0  0  0  0  0  0  0  0  0  0
  -10.9680   18.1678  -17.1243 N   0  0  0  0  0  0  0  0  0  0  0  0
  -10.2739   19.3525  -16.6233 C   0  0  0  0  0  0  0  0  0  0  0  0
  -10.3141   20.3508  -17.3792 O   0  0  0  0  0  0  0  0  0  0  0  0
   -9.6106   19.2675  -15.3252 C   0  0  2  0  0  0  0  0  0  0  0  0
  -10.4396   20.0954  -14.3228 C   0  0  0  0  0  0  0  0  0  0  0  0
  -10.2134   21.4957  -14.8763 C   0  0  0  0  0  0  0  0  0  0  0  0
   -8.7819   21.4225  -15.3534 C   0  0  0  0  0  0  0  0  0  0  0  0
   -8.3631   20.0446  -15.2626 N   0  0  0  0  0  0  0  0  0  0  0  0
   -7.1236   19.4114  -15.0907 C   0  0  0  0  0  0  0  0  0  0  0  0
   -7.1998   18.0873  -15.1437 O   0  0  0  0  0  0  0  0  0  0  0  0
   -5.7668   19.8683  -14.8644 C   0  0  2  0  0  0  0  0  0  0  0  0
   -5.1494   18.9915  -13.7202 C   0  0  0  0  0  0  0  0  0  0  0  0
   -5.4021   19.8038  -12.4883 C   0  0  0  0  0  0  0  0  0  0  0  0
   -5.9028   21.1504  -12.9935 C   0  0  0  0  0  0  0  0  0  0  0  0
   -5.4640   21.1862  -14.4441 N   0  0  0  0  0  0  0  0  0  0  0  0
   -4.9128   22.3813  -14.9207 C   0  0  0  0  0  0  0  0  0  0  0  0
   -4.9370   23.3314  -13.9846 O   0  0  0  0  0  0  0  0  0  0  0  0
   -4.3300   22.8303  -16.1604 C   0  0  1  0  0  0  0  0  0  0  0  0
   -3.9963   24.2851  -16.0806 N   0  0  0  0  0  0  0  0  0  0  0  0
   -4.4464   25.2170  -17.0476 C   0  0  0  0  0  0  0  0  0  0  0  0
   -5.1547   24.7826  -17.9888 O   0  0  0  0  0  0  0  0  0  0  0  0
   -4.0429   26.6295  -16.8749 C   0  0  2  0  0  0  0  0  0  0  0  0
   -4.2788   27.1922  -15.5183 C   0  0  0  0  0  0  0  0  0  0  0  0
   -5.2866   28.3202  -15.7336 C   0  0  0  0  0  0  0  0  0  0  0  0
   -5.0944   28.6979  -17.1911 C   0  0  0  0  0  0  0  0  0  0  0  0
   -4.5520   27.5411  -17.8720 N   0  0  0  0  0  0  0  0  0  0  0  0
   -4.5462   27.4173  -19.2868 C   0  0  0  0  0  0  0  0  0  0  0  0
   -4.0289   26.3104  -19.7226 O   0  0  0  0  0  0  0  0  0  0  0  0
   -5.0277   28.3358  -20.2949 C   0  0  1  0  0  0  0  0  0  0  0  0
   -5.5611   29.6271  -19.9496 N   0  0  0  0  0  0  0  0  0  0  0  0
   -6.8858   29.9848  -20.3078 C   0  0  0  0  0  0  0  0  0  0  0  0
   -7.5339   29.0300  -20.9064 O   0  0  0  0  0  0  0  0  0  0  0  0
   -7.6175   31.2082  -20.1343 C   0  0  1  0  0  0  0  0  0  0  0  0
   -9.0303   30.9449  -20.6019 N   0  0  0  0  0  0  0  0  0  0  0  0
   -7.7833   31.9574  -18.8754 C   0  0  0  0  0  0  0  0  0  0  0  0
   -6.5232   32.4333  -18.2960 C   0  0  0  0  0  0  0  0  0  0  0  0
   -5.8807   31.9322  -17.1980 C   0  0  0  0  0  0  0  0  0  0  0  0
   -4.6778   32.3756  -16.6952 C   0  0  0  0  0  0  0  0  0  0  0  0
   -4.0486   33.4332  -17.3577 C   0  0  0  0  0  0  0  0  0  0  0  0
   -4.6616   33.9739  -18.4736 C   0  0  0  0  0  0  0  0  0  0  0  0
   -5.8847   33.4959  -18.9553 C   0  0  0  0  0  0  0  0  0  0  0  0
   -3.9633   28.5929  -21.3847 C   0  0  0  0  0  0  0  0  0  0  0  0
   -4.4963   29.5667  -22.4151 C   0  0  0  0  0  0  0  0  0  0  0  0
   -3.5984   27.3337  -22.1151 C   0  0  0  0  0  0  0  0  0  0  0  0
   -3.0148   22.2377  -16.5905 C   0  0  0  0  0  0  0  0  0  0  0  0
   -2.9348   20.7845  -16.8256 C   0  0  0  0  0  0  0  0  0  0  0  0
   -1.9123   22.7111  -15.6439 C   0  0  0  0  0  0  0  0  0  0  0  0
  -15.1567   24.6403  -18.6831 C   0  0  0  0  0  0  0  0  0  0  0  0
  -14.6405   25.7334  -19.0610 O   0  0  0  0  0  0  0  0  0  0  0  0
  -15.3595   24.3526  -17.2943 N   0  0  0  0  0  0  0  0  0  0  0  0
  -14.8865   25.3607  -16.3523 C   0  0  1  0  0  0  0  0  0  0  0  0
  -16.1001   26.2096  -15.8975 C   0  0  0  0  0  0  0  0  0  0  0  0
  -17.1409   25.3973  -15.2601 C   0  0  0  0  0  0  0  0  0  0  0  0
  -17.2406   25.1238  -13.9111 C   0  0  0  0  0  0  0  0  0  0  0  0
  -18.2768   24.3382  -13.3966 C   0  0  0  0  0  0  0  0  0  0  0  0
  -19.2433   23.8065  -14.2366 C   0  0  0  0  0  0  0  0  0  0  0  0
  -20.2954   23.0172  -13.7847 O   0  0  0  0  0  0  0  0  0  0  0  0
  -19.1576   24.0719  -15.5893 C   0  0  0  0  0  0  0  0  0  0  0  0
  -18.1264   24.8530  -16.0954 C   0  0  0  0  0  0  0  0  0  0  0  0
  -14.3331   24.6215  -15.2093 C   0  0  0  0  0  0  0  0  0  0  0  0
  -14.9134   23.5432  -14.8362 O   0  0  0  0  0  0  0  0  0  0  0  0
  -13.1818   24.9786  -14.4465 N   0  0  0  0  0  0  0  0  0  0  0  0
  -12.7486   24.3028  -13.2662 C   0  0  0  0  0  0  0  0  0  0  0  0
  -11.5999   25.1255  -12.7990 C   0  0  0  0  0  0  0  0  0  0  0  0
  -11.1414   25.9846  -13.9439 C   0  0  0  0  0  0  0  0  0  0  0  0
  -12.2853   26.0337  -14.9025 C   0  0  1  0  0  0  0  0  0  0  0  0
  -11.7898   25.6229  -16.2813 C   0  0  0  0  0  0  0  0  0  0  0  0
  -12.1722   24.4323  -16.6086 O   0  0  0  0  0  0  0  0  0  0  0  0
  -11.0063   26.4302  -17.1313 N   0  0  0  0  0  0  0  0  0  0  0  0
  -10.4939   27.7383  -16.8231 C   0  0  0  0  0  0  0  0  0  0  0  0
   -9.2510   27.7982  -17.7459 C   0  0  0  0  0  0  0  0  0  0  0  0
   -9.7149   27.0570  -18.9752 C   0  0  0  0  0  0  0  0  0  0  0  0
  -10.6475   26.0125  -18.4831 C   0  0  1  0  0  0  0  0  0  0  0  0
  -10.1391   24.6141  -18.5487 C   0  0  0  0  0  0  0  0  0  0  0  0
   -9.7820   24.0139  -17.4803 O   0  0  0  0  0  0  0  0  0  0  0  0
  -10.0620   23.9648  -19.8105 N   0  0  0  0  0  0  0  0  0  0  0  0
  -10.4100   24.5714  -21.0859 C   0  0  0  0  0  0  0  0  0  0  0  0
  -10.4276   23.4646  -22.1145 C   0  0  0  0  0  0  0  0  0  0  0  0
   -9.3847   22.5110  -21.5450 C   0  0  0  0  0  0  0  0  0  0  0  0
   -9.6398   22.5661  -20.0284 C   0  0  1  0  0  0  0  0  0  0  0  0
   -8.3773   22.2298  -19.3558 C   0  0  0  0  0  0  0  0  0  0  0  0
   -7.9943   21.0339  -19.2862 O   0  0  0  0  0  0  0  0  0  0  0  0
   -7.6305   23.2604  -18.8070 O   0  0  0  0  0  0  0  0  0  0  0  0
  1  2  1  0
  2  3  1  0
  2  4  1  0
  5  4  1  1
  5  6  1  0
  6  7  1  0
  7  8  2  0
  9  7  1  6
  9 10  1  0
 10 11  1  0
 11 12  1  0
 12 13  1  0
 13 14  1  0
 14 15  2  0
 16 14  1  1
 16 17  1  0
 17 18  1  0
 18 19  1  0
 19 20  1  0
 20 21  1  0
 21 22  2  0
 23 21  1  6
 23 24  1  0
 24 25  1  0
 25 26  1  0
 26 27  1  0
 27 28  1  0
 28 29  2  0
 30 28  1  1
 30 31  1  0
 31 32  1  0
 32 33  1  0
 33 34  1  0
 34 35  1  0
 35 36  2  0
 35 37  1  0
 37 38  1  1
 38 39  1  0
 39 40  2  0
 41 39  1  1
 41 42  1  0
 42 43  1  0
 43 44  1  0
 44 45  1  0
 45 46  1  0
 46 47  2  0
 46 48  1  0
 48 49  1  1
 49 50  1  0
 50 51  2  0
 50 52  1  0
 52 53  1  1
 52 54  1  0
 54 55  1  0
 55 56  2  0
 56 57  1  0
 57 58  2  0
 58 59  1  0
 59 60  2  0
 48 61  1  0
 61 62  1  0
 61 63  1  0
 37 64  1  0
 64 65  1  0
 64 66  1  0
  5 67  1  0
 67 68  2  0
 67 69  1  0
 69 70  1  0
 70 71  1  1
 71 72  1  0
 72 73  2  0
 73 74  1  0
 74 75  2  0
 75 76  1  0
 75 77  1  0
 77 78  2  0
 70 79  1  0
 79 80  2  0
 79 81  1  0
 81 82  1  0
 82 83  1  0
 83 84  1  0
 84 85  1  0
 85 86  1  6
 86 87  2  0
 86 88  1  0
 88 89  1  0
 89 90  1  0
 90 91  1  0
 91 92  1  0
 92 93  1  1
 93 94  2  0
 93 95  1  0
 95 96  1  0
 96 97  1  0
 97 98  1  0
 98 99  1  0
 99100  1  1
100101  2  0
100102  1  0
 13  9  1  0
 20 16  1  0
 27 23  1  0
 34 30  1  0
 45 41  1  0
 60 55  1  0
 78 72  1  0
 85 81  1  0
 92 88  1  0
 99 95  1  0
M  CHG  2  53   1 102  -1
M  END
>  <shape_align_shape_tanimoto>  (2) 
0.35173444292549655

>  <shape_align_color_tanimoto>  (2) 
0.046370213834248518

>  <metric>  (2) 
color

>  <metric_score>  (2) 
0.046

>  <template_pid>  (2) 
6E5X

>  <template_shape_score>  (2) 
0.352

>  <template_color_score>  (2) 
0.046

>  <template_combo_score>  (2) 
0.199

$$$$
6E5X_combo_pose
     RDKit          3D

102111  0  0  0  0  0  0  0  0999 V2000
   -5.1202   27.0696  -24.7058 C   0  0  0  0  0  0  0  0  0  0  0  0
   -5.4867   26.4518  -23.3366 C   0  0  0  0  0  0  0  0  0  0  0  0
   -6.6966   25.5978  -23.5226 C   0  0  0  0  0  0  0  0  0  0  0  0
   -4.2529   25.8096  -22.8086 C   0  0  0  0  0  0  0  0  0  0  0  0
   -4.3385   25.1238  -21.4589 C   0  0  2  0  0  0  0  0  0  0  0  0
   -5.2750   24.0267  -21.3653 N   0  0  0  0  0  0  0  0  0  0  0  0
   -5.0585   22.6668  -21.6415 C   0  0  0  0  0  0  0  0  0  0  0  0
   -3.8655   22.3307  -22.0211 O   0  0  0  0  0  0  0  0  0  0  0  0
   -6.0443   21.5571  -21.5566 C   0  0  2  0  0  0  0  0  0  0  0  0
   -6.3053   21.0179  -22.9735 C   0  0  0  0  0  0  0  0  0  0  0  0
   -7.5926   21.7331  -23.3629 C   0  0  0  0  0  0  0  0  0  0  0  0
   -8.1049   22.4523  -22.1223 C   0  0  0  0  0  0  0  0  0  0  0  0
   -7.3374   21.8673  -21.0081 N   0  0  0  0  0  0  0  0  0  0  0  0
   -7.8009   21.6848  -19.6319 C   0  0  0  0  0  0  0  0  0  0  0  0
   -6.9920   21.0102  -18.9075 O   0  0  0  0  0  0  0  0  0  0  0  0
   -9.0910   22.2449  -19.1482 C   0  0  2  0  0  0  0  0  0  0  0  0
   -8.6142   23.2621  -18.0362 C   0  0  0  0  0  0  0  0  0  0  0  0
   -8.2625   22.2636  -16.9330 C   0  0  0  0  0  0  0  0  0  0  0  0
   -9.0740   20.9918  -17.2030 C   0  0  0  0  0  0  0  0  0  0  0  0
   -9.9421   21.3743  -18.3422 N   0  0  0  0  0  0  0  0  0  0  0  0
  -11.3146   21.0136  -18.5738 C   0  0  0  0  0  0  0  0  0  0  0  0
  -11.8601   21.5200  -19.6169 O   0  0  0  0  0  0  0  0  0  0  0  0
  -12.0440   20.1188  -17.6594 C   0  0  2  0  0  0  0  0  0  0  0  0
  -12.0193   18.7244  -18.3113 C   0  0  0  0  0  0  0  0  0  0  0  0
  -13.0948   18.9320  -19.3823 C   0  0  0  0  0  0  0  0  0  0  0  0
  -14.1896   19.6427  -18.6249 C   0  0  0  0  0  0  0  0  0  0  0  0
  -13.5155   20.4164  -17.5926 N   0  0  0  0  0  0  0  0  0  0  0  0
  -14.0098   21.3245  -16.6097 C   0  0  0  0  0  0  0  0  0  0  0  0
  -13.0817   21.8310  -15.8197 O   0  0  0  0  0  0  0  0  0  0  0  0
  -15.3573   21.7946  -16.3199 C   0  0  2  0  0  0  0  0  0  0  0  0
  -15.8100   20.9896  -15.0468 C   0  0  0  0  0  0  0  0  0  0  0  0
  -16.4248   19.7232  -15.6747 C   0  0  0  0  0  0  0  0  0  0  0  0
  -17.0483   20.2450  -16.9422 C   0  0  0  0  0  0  0  0  0  0  0  0
  -16.4398   21.5800  -17.2208 N   0  0  0  0  0  0  0  0  0  0  0  0
  -16.9986   22.3811  -18.2779 C   0  0  0  0  0  0  0  0  0  0  0  0
  -17.9143   21.7713  -18.9674 O   0  0  0  0  0  0  0  0  0  0  0  0
  -16.6756   23.7506  -18.6504 C   0  0  1  0  0  0  0  0  0  0  0  0
  -15.7840   24.5128  -17.7947 N   0  0  0  0  0  0  0  0  0  0  0  0
  -16.3885   25.4367  -16.8704 C   0  0  0  0  0  0  0  0  0  0  0  0
  -17.6730   25.5643  -16.7902 O   0  0  0  0  0  0  0  0  0  0  0  0
  -15.6144   26.3190  -15.9350 C   0  0  2  0  0  0  0  0  0  0  0  0
  -16.1684   27.7282  -15.8947 C   0  0  0  0  0  0  0  0  0  0  0  0
  -15.1022   28.6003  -16.5487 C   0  0  0  0  0  0  0  0  0  0  0  0
  -14.2935   27.5653  -17.3509 C   0  0  0  0  0  0  0  0  0  0  0  0
  -14.1947   26.4756  -16.3887 N   0  0  0  0  0  0  0  0  0  0  0  0
  -13.1445   25.6682  -15.9130 C   0  0  0  0  0  0  0  0  0  0  0  0
  -13.4477   24.7909  -15.0073 O   0  0  0  0  0  0  0  0  0  0  0  0
  -11.7103   25.6848  -16.3162 C   0  0  1  0  0  0  0  0  0  0  0  0
  -11.3403   26.6781  -17.3147 N   0  0  0  0  0  0  0  0  0  0  0  0
  -11.1958   26.3740  -18.7222 C   0  0  0  0  0  0  0  0  0  0  0  0
  -11.4129   25.1941  -19.1787 O   0  0  0  0  0  0  0  0  0  0  0  0
  -10.7889   27.4040  -19.7269 C   0  0  1  0  0  0  0  0  0  0  0  0
  -10.1817   28.5886  -19.1540 N   0  0  0  0  0  0  0  0  0  0  0  0
   -9.9224   26.8501  -20.8546 C   0  0  0  0  0  0  0  0  0  0  0  0
   -9.5173   27.9112  -21.8345 C   0  0  0  0  0  0  0  0  0  0  0  0
   -8.2783   28.5663  -21.6102 C   0  0  0  0  0  0  0  0  0  0  0  0
   -7.8844   29.5663  -22.5146 C   0  0  0  0  0  0  0  0  0  0  0  0
   -8.6530   29.9232  -23.5925 C   0  0  0  0  0  0  0  0  0  0  0  0
   -9.8696   29.2670  -23.7975 C   0  0  0  0  0  0  0  0  0  0  0  0
  -10.3154   28.2664  -22.9365 C   0  0  0  0  0  0  0  0  0  0  0  0
  -10.8580   25.8448  -15.0501 C   0  0  0  0  0  0  0  0  0  0  0  0
  -11.1122   24.6582  -14.1433 C   0  0  0  0  0  0  0  0  0  0  0  0
   -9.3788   25.9548  -15.3386 C   0  0  0  0  0  0  0  0  0  0  0  0
  -16.2752   23.8225  -20.1156 C   0  0  0  0  0  0  0  0  0  0  0  0
  -17.4603   23.3375  -20.9429 C   0  0  0  0  0  0  0  0  0  0  0  0
  -15.0815   22.9617  -20.4601 C   0  0  0  0  0  0  0  0  0  0  0  0
   -4.5352   26.1827  -20.4448 C   0  0  0  0  0  0  0  0  0  0  0  0
   -4.1504   27.3901  -20.7088 O   0  0  0  0  0  0  0  0  0  0  0  0
   -5.1302   26.0117  -19.1524 N   0  0  0  0  0  0  0  0  0  0  0  0
   -5.2768   27.2575  -18.3567 C   0  0  1  0  0  0  0  0  0  0  0  0
   -5.9860   26.9142  -17.0787 C   0  0  0  0  0  0  0  0  0  0  0  0
   -5.2558   25.9756  -16.1838 C   0  0  0  0  0  0  0  0  0  0  0  0
   -4.3728   26.5677  -15.2518 C   0  0  0  0  0  0  0  0  0  0  0  0
   -3.6302   25.8499  -14.3448 C   0  0  0  0  0  0  0  0  0  0  0  0
   -3.7529   24.4647  -14.3419 C   0  0  0  0  0  0  0  0  0  0  0  0
   -3.0273   23.6501  -13.4454 O   0  0  0  0  0  0  0  0  0  0  0  0
   -4.6126   23.8209  -15.2418 C   0  0  0  0  0  0  0  0  0  0  0  0
   -5.3524   24.6095  -16.1523 C   0  0  0  0  0  0  0  0  0  0  0  0
   -3.8824   27.7930  -18.0599 C   0  0  0  0  0  0  0  0  0  0  0  0
   -2.8850   27.0298  -18.2782 O   0  0  0  0  0  0  0  0  0  0  0  0
   -3.6048   29.0978  -17.5568 N   0  0  0  0  0  0  0  0  0  0  0  0
   -2.1853   29.4799  -17.2825 C   0  0  0  0  0  0  0  0  0  0  0  0
   -2.2321   30.9655  -17.0053 C   0  0  0  0  0  0  0  0  0  0  0  0
   -3.6380   31.1460  -16.3940 C   0  0  0  0  0  0  0  0  0  0  0  0
   -4.4876   30.2473  -17.2774 C   0  0  1  0  0  0  0  0  0  0  0  0
   -4.9119   30.9053  -18.5223 C   0  0  0  0  0  0  0  0  0  0  0  0
   -4.4515   30.3441  -19.6209 O   0  0  0  0  0  0  0  0  0  0  0  0
   -5.7248   32.0324  -18.7608 N   0  0  0  0  0  0  0  0  0  0  0  0
   -5.9498   32.4164  -20.2271 C   0  0  0  0  0  0  0  0  0  0  0  0
   -7.3382   32.9783  -20.2739 C   0  0  0  0  0  0  0  0  0  0  0  0
   -7.8114   32.9988  -18.8272 C   0  0  0  0  0  0  0  0  0  0  0  0
   -6.4451   33.0417  -18.0726 C   0  0  1  0  0  0  0  0  0  0  0  0
   -6.6561   33.0449  -16.6287 C   0  0  0  0  0  0  0  0  0  0  0  0
   -6.0667   34.0225  -15.9806 O   0  0  0  0  0  0  0  0  0  0  0  0
   -7.4251   32.1336  -15.8330 N   0  0  0  0  0  0  0  0  0  0  0  0
   -8.1525   30.9277  -16.2281 C   0  0  0  0  0  0  0  0  0  0  0  0
   -8.1289   30.0506  -14.9870 C   0  0  0  0  0  0  0  0  0  0  0  0
   -7.3553   30.8752  -13.9217 C   0  0  0  0  0  0  0  0  0  0  0  0
   -7.6626   32.3287  -14.3966 C   0  0  1  0  0  0  0  0  0  0  0  0
   -6.8440   33.3228  -13.7146 C   0  0  0  0  0  0  0  0  0  0  0  0
   -7.1708   34.5691  -13.7362 O   0  0  0  0  0  0  0  0  0  0  0  0
   -5.6622   33.0360  -12.9919 O   0  0  0  0  0  0  0  0  0  0  0  0
  1  2  1  0
  2  3  1  0
  2  4  1  0
  5  4  1  6
  5  6  1  0
  6  7  1  0
  7  8  2  0
  9  7  1  6
  9 10  1  0
 10 11  1  0
 11 12  1  0
 12 13  1  0
 13 14  1  0
 14 15  2  0
 16 14  1  1
 16 17  1  0
 17 18  1  0
 18 19  1  0
 19 20  1  0
 20 21  1  0
 21 22  2  0
 23 21  1  6
 23 24  1  0
 24 25  1  0
 25 26  1  0
 26 27  1  0
 27 28  1  0
 28 29  2  0
 30 28  1  6
 30 31  1  0
 31 32  1  0
 32 33  1  0
 33 34  1  0
 34 35  1  0
 35 36  2  0
 35 37  1  0
 37 38  1  1
 38 39  1  0
 39 40  2  0
 41 39  1  6
 41 42  1  0
 42 43  1  0
 43 44  1  0
 44 45  1  0
 45 46  1  0
 46 47  2  0
 46 48  1  0
 48 49  1  6
 49 50  1  0
 50 51  2  0
 50 52  1  0
 52 53  1  1
 52 54  1  0
 54 55  1  0
 55 56  2  0
 56 57  1  0
 57 58  2  0
 58 59  1  0
 59 60  2  0
 48 61  1  0
 61 62  1  0
 61 63  1  0
 37 64  1  0
 64 65  1  0
 64 66  1  0
  5 67  1  0
 67 68  2  0
 67 69  1  0
 69 70  1  0
 70 71  1  1
 71 72  1  0
 72 73  2  0
 73 74  1  0
 74 75  2  0
 75 76  1  0
 75 77  1  0
 77 78  2  0
 70 79  1  0
 79 80  2  0
 79 81  1  0
 81 82  1  0
 82 83  1  0
 83 84  1  0
 84 85  1  0
 85 86  1  6
 86 87  2  0
 86 88  1  0
 88 89  1  0
 89 90  1  0
 90 91  1  0
 91 92  1  0
 92 93  1  1
 93 94  2  0
 93 95  1  0
 95 96  1  0
 96 97  1  0
 97 98  1  0
 98 99  1  0
 99100  1  1
100101  2  0
100102  1  0
 13  9  1  0
 20 16  1  0
 27 23  1  0
 34 30  1  0
 45 41  1  0
 60 55  1  0
 78 72  1  0
 85 81  1  0
 92 88  1  0
 99 95  1  0
M  CHG  2  53   1 102  -1
M  END
>  <shape_align_shape_tanimoto>  (3) 
0.38721290502724148

>  <shape_align_color_tanimoto>  (3) 
0.027496012400216849

>  <metric>  (3) 
combo

>  <metric_score>  (3) 
0.207

>  <template_pid>  (3) 
6E5X

>  <template_shape_score>  (3) 
0.387

>  <template_color_score>  (3) 
0.027

>  <template_combo_score>  (3) 
0.207

$$$$
