5HJD_shape_pose
     RDKit          3D

 64 64  0  0  0  0  0  0  0  0999 V2000
   -3.6013  -21.1222  -29.8766 C   0  0  0  0  0  0  0  0  0  0  0  0
   -2.4475  -21.6743  -30.6204 C   0  0  0  0  0  0  0  0  0  0  0  0
   -2.6043  -22.6279  -31.5163 C   0  0  0  0  0  0  0  0  0  0  0  0
   -1.4976  -23.2088  -32.2771 C   0  0  0  0  0  0  0  0  0  0  0  0
   -1.8323  -24.1339  -33.0912 O   0  0  0  0  0  0  0  0  0  0  0  0
   -0.1601  -22.8042  -32.1410 N   0  0  0  0  0  0  0  0  0  0  0  0
    0.9758  -23.3801  -32.8588 C   0  0  0  0  0  0  0  0  0  0  0  0
    0.9995  -24.8427  -32.3879 C   0  0  0  0  0  0  0  0  0  0  0  0
    2.1288  -25.6430  -32.9385 C   0  0  0  0  0  0  0  0  0  0  0  0
    2.1629  -27.0768  -32.6058 C   0  0  0  0  0  0  0  0  0  0  0  0
    2.1193  -27.5391  -31.2026 C   0  0  2  0  0  0  0  0  0  0  0  0
    0.8778  -27.2150  -30.5228 N   0  0  0  0  0  0  0  0  0  0  0  0
    0.6580  -27.5991  -29.1750 C   0  0  0  0  0  0  0  0  0  0  0  0
    1.6634  -28.2078  -28.6292 O   0  0  0  0  0  0  0  0  0  0  0  0
   -0.5068  -27.4120  -28.3619 C   0  0  2  0  0  0  0  0  0  0  0  0
   -1.4249  -26.2872  -28.4443 C   0  0  0  0  0  0  0  0  0  0  0  0
   -2.1849  -25.9856  -29.6919 C   0  0  0  0  0  0  0  0  0  0  0  0
   -2.9936  -27.1123  -30.2036 C   0  0  0  0  0  0  0  0  0  0  0  0
   -3.9966  -27.6891  -29.4071 N   0  0  0  0  0  0  0  0  0  0  0  0
   -5.2514  -27.2122  -28.9922 C   0  0  0  0  0  0  0  0  0  0  0  0
   -6.1009  -28.0121  -28.1553 N   0  0  0  0  0  0  0  0  0  0  0  0
   -5.6340  -26.0430  -29.3700 N   0  0  0  0  0  0  0  0  0  0  0  0
   -0.2504  -27.7173  -26.9414 N   0  0  0  0  0  0  0  0  0  0  0  0
   -0.6413  -28.8594  -26.2572 C   0  0  0  0  0  0  0  0  0  0  0  0
   -1.2778  -29.7442  -26.9833 O   0  0  0  0  0  0  0  0  0  0  0  0
   -0.4577  -29.2291  -24.8780 C   0  0  2  0  0  0  0  0  0  0  0  0
   -1.3862  -30.3723  -24.4450 C   0  0  0  0  0  0  0  0  0  0  0  0
   -0.8642  -30.5551  -23.0348 C   0  0  0  0  0  0  0  0  0  0  0  0
   -0.2949  -29.2214  -22.6031 C   0  0  0  0  0  0  0  0  0  0  0  0
   -0.6513  -28.3456  -23.7887 N   0  0  0  0  0  0  0  0  0  0  0  0
   -1.0933  -27.0504  -23.5004 C   0  0  0  0  0  0  0  0  0  0  0  0
   -1.2140  -26.8026  -22.2230 O   0  0  0  0  0  0  0  0  0  0  0  0
   -1.4484  -25.9278  -24.3579 C   0  0  2  0  0  0  0  0  0  0  0  0
   -0.2508  -25.0301  -24.6684 C   0  0  0  0  0  0  0  0  0  0  0  0
   -2.3074  -25.0007  -23.5609 N   0  0  0  0  0  0  0  0  0  0  0  0
   -3.7176  -24.9880  -23.8770 C   0  0  0  0  0  0  0  0  0  0  0  0
   -4.0848  -25.7677  -24.7626 O   0  0  0  0  0  0  0  0  0  0  0  0
   -4.5959  -24.0595  -23.1234 C   0  0  1  0  0  0  0  0  0  0  0  0
   -3.9189  -22.8338  -22.8560 N   0  0  0  0  0  0  0  0  0  0  0  0
   -5.9403  -23.8626  -23.7450 C   0  0  0  0  0  0  0  0  0  0  0  0
   -6.8234  -22.9129  -23.0033 C   0  0  0  0  0  0  0  0  0  0  0  0
   -7.1211  -23.2865  -21.5895 C   0  0  0  0  0  0  0  0  0  0  0  0
   -7.8332  -24.6021  -21.4863 C   0  0  0  0  0  0  0  0  0  0  0  0
   -9.0975  -24.6654  -22.1424 N   0  0  0  0  0  0  0  0  0  0  0  0
    3.3487  -27.2458  -30.4380 C   0  0  0  0  0  0  0  0  0  0  0  0
    4.3920  -27.8968  -30.8115 O   0  0  0  0  0  0  0  0  0  0  0  0
    3.5334  -26.3571  -29.3557 N   0  0  0  0  0  0  0  0  0  0  0  0
    4.8668  -26.3567  -28.7849 C   0  0  1  0  0  0  0  0  0  0  0  0
    5.9096  -25.5348  -29.4125 C   0  0  0  0  0  0  0  0  0  0  0  0
    5.8321  -24.0863  -29.4836 C   0  0  0  0  0  0  0  0  0  0  0  0
    4.7331  -23.4006  -30.1583 C   0  0  0  0  0  0  0  0  0  0  0  0
    4.9809  -21.9599  -30.3610 N   0  0  0  0  0  0  0  0  0  0  0  0
    3.6659  -23.8673  -30.5657 O   0  0  0  0  0  0  0  0  0  0  0  0
    4.7531  -25.9739  -27.3601 C   0  0  0  0  0  0  0  0  0  0  0  0
    3.6763  -25.5951  -26.8217 O   0  0  0  0  0  0  0  0  0  0  0  0
    5.8970  -26.0046  -26.4708 N   0  0  0  0  0  0  0  0  0  0  0  0
    5.8223  -25.6098  -25.1005 C   0  0  1  0  0  0  0  0  0  0  0  0
    5.9714  -26.7674  -24.1280 C   0  0  0  0  0  0  0  0  0  0  0  0
    5.8472  -26.1906  -22.7305 C   0  0  0  0  0  0  0  0  0  0  0  0
    5.9678  -27.2538  -21.6814 C   0  0  0  0  0  0  0  0  0  0  0  0
    4.5942  -25.3711  -22.5761 C   0  0  0  0  0  0  0  0  0  0  0  0
    6.9656  -24.6860  -24.8665 C   0  0  0  0  0  0  0  0  0  0  0  0
    8.0326  -25.0179  -24.3019 O   0  0  0  0  0  0  0  0  0  0  0  0
    6.8116  -23.3791  -25.3105 O   0  0  0  0  0  0  0  0  0  0  0  0
  1  2  1  0
  2  3  2  0
  3  4  1  0
  4  5  2  0
  4  6  1  0
  6  7  1  0
  7  8  1  0
  8  9  1  0
  9 10  1  0
 11 10  1  6
 11 12  1  0
 12 13  1  0
 13 14  2  0
 13 15  1  0
 15 16  1  1
 16 17  1  0
 17 18  1  0
 18 19  1  0
 19 20  1  0
 20 21  1  0
 20 22  2  0
 15 23  1  0
 23 24  1  0
 24 25  2  0
 26 24  1  6
 26 27  1  0
 27 28  1  0
 28 29  1  0
 29 30  1  0
 30 31  1  0
 31 32  2  0
 31 33  1  0
 33 34  1  1
 33 35  1  0
 35 36  1  0
 36 37  2  0
 36 38  1  0
 38 39  1  6
 38 40  1  0
 40 41  1  0
 41 42  1  0
 42 43  1  0
 43 44  1  0
 11 45  1  0
 45 46  2  0
 45 47  1  0
 47 48  1  0
 48 49  1  6
 49 50  1  0
 50 51  1  0
 51 52  1  0
 51 53  2  0
 48 54  1  0
 54 55  2  0
 54 56  1  0
 56 57  1  0
 57 58  1  1
 58 59  1  0
 59 60  1  0
 59 61  1  0
 57 62  1  0
 62 63  2  0
 62 64  1  0
 30 26  1  0
M  CHG  4  22   1  39   1  44   1  64  -1
M  END
>  <shape_align_shape_tanimoto>  (1) 
0.36996109458851695

>  <shape_align_color_tanimoto>  (1) 
0.056852003798066639

>  <metric>  (1) 
shape

>  <metric_score>  (1) 
0.370

>  <template_pid>  (1) 
5HJD

>  <template_shape_score>  (1) 
0.370

>  <template_color_score>  (1) 
0.057

>  <template_combo_score>  (1) 
0.213

$$$$
5HJD_color_pose
     RDKit          3D

 64 64  0  0  0  0  0  0  0  0999 V2000
    3.1093  -18.4371  -37.1960 C   0  0  0  0  0  0  0  0  0  0  0  0
    2.9207  -19.8889  -36.9311 C   0  0  0  0  0  0  0  0  0  0  0  0
    1.8065  -20.3248  -36.3728 C   0  0  0  0  0  0  0  0  0  0  0  0
    1.6463  -21.7612  -36.1246 C   0  0  0  0  0  0  0  0  0  0  0  0
    2.6345  -22.4826  -36.4863 O   0  0  0  0  0  0  0  0  0  0  0  0
    0.4826  -22.3154  -35.5294 N   0  0  0  0  0  0  0  0  0  0  0  0
    0.3550  -23.7307  -35.3057 C   0  0  0  0  0  0  0  0  0  0  0  0
    1.4225  -24.2575  -34.3886 C   0  0  0  0  0  0  0  0  0  0  0  0
    1.2952  -25.7543  -34.1927 C   0  0  0  0  0  0  0  0  0  0  0  0
    2.3299  -26.3237  -33.2912 C   0  0  0  0  0  0  0  0  0  0  0  0
    2.3267  -25.8197  -31.8749 C   0  0  2  0  0  0  0  0  0  0  0  0
    3.3843  -26.4406  -31.0888 N   0  0  0  0  0  0  0  0  0  0  0  0
    4.1054  -25.5523  -30.2206 C   0  0  0  0  0  0  0  0  0  0  0  0
    3.7379  -24.3514  -30.2426 O   0  0  0  0  0  0  0  0  0  0  0  0
    5.2191  -26.0443  -29.3513 C   0  0  2  0  0  0  0  0  0  0  0  0
    4.8404  -27.3154  -28.7167 C   0  0  0  0  0  0  0  0  0  0  0  0
    5.8846  -27.9077  -27.8108 C   0  0  0  0  0  0  0  0  0  0  0  0
    7.1767  -28.2584  -28.4387 C   0  0  0  0  0  0  0  0  0  0  0  0
    8.1760  -28.8211  -27.5563 N   0  0  0  0  0  0  0  0  0  0  0  0
    8.0705  -30.0863  -26.9324 C   0  0  0  0  0  0  0  0  0  0  0  0
    9.1867  -30.4562  -26.0814 N   0  0  0  0  0  0  0  0  0  0  0  0
    7.1005  -30.9002  -27.0608 N   0  0  0  0  0  0  0  0  0  0  0  0
    5.6763  -25.0361  -28.4011 N   0  0  0  0  0  0  0  0  0  0  0  0
    4.6558  -24.4539  -27.5637 C   0  0  0  0  0  0  0  0  0  0  0  0
    3.5049  -24.8847  -27.7666 O   0  0  0  0  0  0  0  0  0  0  0  0
    5.0850  -23.4551  -26.5971 C   0  0  2  0  0  0  0  0  0  0  0  0
    5.9536  -24.1118  -25.5152 C   0  0  0  0  0  0  0  0  0  0  0  0
    5.9573  -23.0801  -24.4264 C   0  0  0  0  0  0  0  0  0  0  0  0
    5.0777  -21.9489  -24.8813 C   0  0  0  0  0  0  0  0  0  0  0  0
    4.1688  -22.7067  -25.8407 N   0  0  0  0  0  0  0  0  0  0  0  0
    2.7963  -22.4571  -25.7078 C   0  0  0  0  0  0  0  0  0  0  0  0
    2.5213  -21.6420  -24.7151 O   0  0  0  0  0  0  0  0  0  0  0  0
    1.6302  -22.9084  -26.4406 C   0  0  2  0  0  0  0  0  0  0  0  0
    1.6284  -22.2858  -27.8576 C   0  0  0  0  0  0  0  0  0  0  0  0
    0.4348  -22.3125  -25.8192 N   0  0  0  0  0  0  0  0  0  0  0  0
   -0.7510  -23.0465  -25.8909 C   0  0  0  0  0  0  0  0  0  0  0  0
   -0.7099  -24.1731  -26.5009 O   0  0  0  0  0  0  0  0  0  0  0  0
   -2.0591  -22.6649  -25.3367 C   0  0  1  0  0  0  0  0  0  0  0  0
   -3.0657  -23.5982  -25.8445 N   0  0  0  0  0  0  0  0  0  0  0  0
   -2.1041  -22.8363  -23.8255 C   0  0  0  0  0  0  0  0  0  0  0  0
   -3.4904  -22.4198  -23.3844 C   0  0  0  0  0  0  0  0  0  0  0  0
   -3.7141  -22.5616  -21.9029 C   0  0  0  0  0  0  0  0  0  0  0  0
   -2.7376  -21.7173  -21.1439 C   0  0  0  0  0  0  0  0  0  0  0  0
   -2.9683  -21.8614  -19.7067 N   0  0  0  0  0  0  0  0  0  0  0  0
    0.9853  -26.1248  -31.2251 C   0  0  0  0  0  0  0  0  0  0  0  0
    0.0230  -25.4549  -31.6635 O   0  0  0  0  0  0  0  0  0  0  0  0
    0.9295  -27.0970  -30.2192 N   0  0  0  0  0  0  0  0  0  0  0  0
   -0.2505  -27.4928  -29.4807 C   0  0  1  0  0  0  0  0  0  0  0  0
   -0.7432  -28.8007  -30.1253 C   0  0  0  0  0  0  0  0  0  0  0  0
   -1.1160  -28.6645  -31.5533 C   0  0  0  0  0  0  0  0  0  0  0  0
   -2.2438  -27.7258  -31.7861 C   0  0  0  0  0  0  0  0  0  0  0  0
   -2.7044  -27.4656  -33.1131 N   0  0  0  0  0  0  0  0  0  0  0  0
   -2.8502  -27.1184  -30.8665 O   0  0  0  0  0  0  0  0  0  0  0  0
    0.1310  -27.8822  -28.0999 C   0  0  0  0  0  0  0  0  0  0  0  0
    1.3650  -27.9448  -27.8439 O   0  0  0  0  0  0  0  0  0  0  0  0
   -0.7672  -28.1822  -27.0687 N   0  0  0  0  0  0  0  0  0  0  0  0
   -0.1906  -28.5665  -25.7552 C   0  0  1  0  0  0  0  0  0  0  0  0
   -0.3559  -27.3336  -24.9031 C   0  0  0  0  0  0  0  0  0  0  0  0
    0.1752  -27.3634  -23.5349 C   0  0  0  0  0  0  0  0  0  0  0  0
   -0.3346  -28.3385  -22.5490 C   0  0  0  0  0  0  0  0  0  0  0  0
   -0.0436  -25.9656  -22.9204 C   0  0  0  0  0  0  0  0  0  0  0  0
   -1.0862  -29.6548  -25.3034 C   0  0  0  0  0  0  0  0  0  0  0  0
   -0.8581  -30.8089  -25.7944 O   0  0  0  0  0  0  0  0  0  0  0  0
   -2.1249  -29.5489  -24.4275 O   0  0  0  0  0  0  0  0  0  0  0  0
  1  2  1  0
  2  3  2  0
  3  4  1  0
  4  5  2  0
  4  6  1  0
  6  7  1  0
  7  8  1  0
  8  9  1  0
  9 10  1  0
 11 10  1  6
 11 12  1  0
 12 13  1  0
 13 14  2  0
 13 15  1  0
 15 16  1  1
 16 17  1  0
 17 18  1  0
 18 19  1  0
 19 20  1  0
 20 21  1  0
 20 22  2  0
 15 23  1  0
 23 24  1  0
 24 25  2  0
 26 24  1  1
 26 27  1  0
 27 28  1  0
 28 29  1  0
 29 30  1  0
 30 31  1  0
 31 32  2  0
 31 33  1  0
 33 34  1  6
 33 35  1  0
 35 36  1  0
 36 37  2  0
 36 38  1  0
 38 39  1  6
 38 40  1  0
 40 41  1  0
 41 42  1  0
 42 43  1  0
 43 44  1  0
 11 45  1  0
 45 46  2  0
 45 47  1  0
 47 48  1  0
 48 49  1  6
 49 50  1  0
 50 51  1  0
 51 52  1  0
 51 53  2  0
 48 54  1  0
 54 55  2  0
 54 56  1  0
 56 57  1  0
 57 58  1  1
 58 59  1  0
 59 60  1  0
 59 61  1  0
 57 62  1  0
 62 63  2  0
 62 64  1  0
 30 26  1  0
M  CHG  4  22   1  39   1  44   1  64  -1
M  END
>  <shape_align_shape_tanimoto>  (2) 
0.31825903360466085

>  <shape_align_color_tanimoto>  (2) 
0.070045822452478895

>  <metric>  (2) 
color

>  <metric_score>  (2) 
0.070

>  <template_pid>  (2) 
5HJD

>  <template_shape_score>  (2) 
0.318

>  <template_color_score>  (2) 
0.070

>  <template_combo_score>  (2) 
0.194

$$$$
5HJD_combo_pose
     RDKit          3D

 64 64  0  0  0  0  0  0  0  0999 V2000
   -3.6013  -21.1222  -29.8766 C   0  0  0  0  0  0  0  0  0  0  0  0
   -2.4475  -21.6743  -30.6204 C   0  0  0  0  0  0  0  0  0  0  0  0
   -2.6043  -22.6279  -31.5163 C   0  0  0  0  0  0  0  0  0  0  0  0
   -1.4976  -23.2088  -32.2771 C   0  0  0  0  0  0  0  0  0  0  0  0
   -1.8323  -24.1339  -33.0912 O   0  0  0  0  0  0  0  0  0  0  0  0
   -0.1601  -22.8042  -32.1410 N   0  0  0  0  0  0  0  0  0  0  0  0
    0.9758  -23.3801  -32.8588 C   0  0  0  0  0  0  0  0  0  0  0  0
    0.9995  -24.8427  -32.3879 C   0  0  0  0  0  0  0  0  0  0  0  0
    2.1288  -25.6430  -32.9385 C   0  0  0  0  0  0  0  0  0  0  0  0
    2.1629  -27.0768  -32.6058 C   0  0  0  0  0  0  0  0  0  0  0  0
    2.1193  -27.5391  -31.2026 C   0  0  2  0  0  0  0  0  0  0  0  0
    0.8778  -27.2150  -30.5228 N   0  0  0  0  0  0  0  0  0  0  0  0
    0.6580  -27.5991  -29.1750 C   0  0  0  0  0  0  0  0  0  0  0  0
    1.6634  -28.2078  -28.6292 O   0  0  0  0  0  0  0  0  0  0  0  0
   -0.5068  -27.4120  -28.3619 C   0  0  2  0  0  0  0  0  0  0  0  0
   -1.4249  -26.2872  -28.4443 C   0  0  0  0  0  0  0  0  0  0  0  0
   -2.1849  -25.9856  -29.6919 C   0  0  0  0  0  0  0  0  0  0  0  0
   -2.9936  -27.1123  -30.2036 C   0  0  0  0  0  0  0  0  0  0  0  0
   -3.9966  -27.6891  -29.4071 N   0  0  0  0  0  0  0  0  0  0  0  0
   -5.2514  -27.2122  -28.9922 C   0  0  0  0  0  0  0  0  0  0  0  0
   -6.1009  -28.0121  -28.1553 N   0  0  0  0  0  0  0  0  0  0  0  0
   -5.6340  -26.0430  -29.3700 N   0  0  0  0  0  0  0  0  0  0  0  0
   -0.2504  -27.7173  -26.9414 N   0  0  0  0  0  0  0  0  0  0  0  0
   -0.6413  -28.8594  -26.2572 C   0  0  0  0  0  0  0  0  0  0  0  0
   -1.2778  -29.7442  -26.9833 O   0  0  0  0  0  0  0  0  0  0  0  0
   -0.4577  -29.2291  -24.8780 C   0  0  2  0  0  0  0  0  0  0  0  0
   -1.3862  -30.3723  -24.4450 C   0  0  0  0  0  0  0  0  0  0  0  0
   -0.8642  -30.5551  -23.0348 C   0  0  0  0  0  0  0  0  0  0  0  0
   -0.2949  -29.2214  -22.6031 C   0  0  0  0  0  0  0  0  0  0  0  0
   -0.6513  -28.3456  -23.7887 N   0  0  0  0  0  0  0  0  0  0  0  0
   -1.0933  -27.0504  -23.5004 C   0  0  0  0  0  0  0  0  0  0  0  0
   -1.2140  -26.8026  -22.2230 O   0  0  0  0  0  0  0  0  0  0  0  0
   -1.4484  -25.9278  -24.3579 C   0  0  2  0  0  0  0  0  0  0  0  0
   -0.2508  -25.0301  -24.6684 C   0  0  0  0  0  0  0  0  0  0  0  0
   -2.3074  -25.0007  -23.5609 N   0  0  0  0  0  0  0  0  0  0  0  0
   -3.7176  -24.9880  -23.8770 C   0  0  0  0  0  0  0  0  0  0  0  0
   -4.0848  -25.7677  -24.7626 O   0  0  0  0  0  0  0  0  0  0  0  0
   -4.5959  -24.0595  -23.1234 C   0  0  1  0  0  0  0  0  0  0  0  0
   -3.9189  -22.8338  -22.8560 N   0  0  0  0  0  0  0  0  0  0  0  0
   -5.9403  -23.8626  -23.7450 C   0  0  0  0  0  0  0  0  0  0  0  0
   -6.8234  -22.9129  -23.0033 C   0  0  0  0  0  0  0  0  0  0  0  0
   -7.1211  -23.2865  -21.5895 C   0  0  0  0  0  0  0  0  0  0  0  0
   -7.8332  -24.6021  -21.4863 C   0  0  0  0  0  0  0  0  0  0  0  0
   -9.0975  -24.6654  -22.1424 N   0  0  0  0  0  0  0  0  0  0  0  0
    3.3487  -27.2458  -30.4380 C   0  0  0  0  0  0  0  0  0  0  0  0
    4.3920  -27.8968  -30.8115 O   0  0  0  0  0  0  0  0  0  0  0  0
    3.5334  -26.3571  -29.3557 N   0  0  0  0  0  0  0  0  0  0  0  0
    4.8668  -26.3567  -28.7849 C   0  0  1  0  0  0  0  0  0  0  0  0
    5.9096  -25.5348  -29.4125 C   0  0  0  0  0  0  0  0  0  0  0  0
    5.8321  -24.0863  -29.4836 C   0  0  0  0  0  0  0  0  0  0  0  0
    4.7331  -23.4006  -30.1583 C   0  0  0  0  0  0  0  0  0  0  0  0
    4.9809  -21.9599  -30.3610 N   0  0  0  0  0  0  0  0  0  0  0  0
    3.6659  -23.8673  -30.5657 O   0  0  0  0  0  0  0  0  0  0  0  0
    4.7531  -25.9739  -27.3601 C   0  0  0  0  0  0  0  0  0  0  0  0
    3.6763  -25.5951  -26.8217 O   0  0  0  0  0  0  0  0  0  0  0  0
    5.8970  -26.0046  -26.4708 N   0  0  0  0  0  0  0  0  0  0  0  0
    5.8223  -25.6098  -25.1005 C   0  0  1  0  0  0  0  0  0  0  0  0
    5.9714  -26.7674  -24.1280 C   0  0  0  0  0  0  0  0  0  0  0  0
    5.8472  -26.1906  -22.7305 C   0  0  0  0  0  0  0  0  0  0  0  0
    5.9678  -27.2538  -21.6814 C   0  0  0  0  0  0  0  0  0  0  0  0
    4.5942  -25.3711  -22.5761 C   0  0  0  0  0  0  0  0  0  0  0  0
    6.9656  -24.6860  -24.8665 C   0  0  0  0  0  0  0  0  0  0  0  0
    8.0326  -25.0179  -24.3019 O   0  0  0  0  0  0  0  0  0  0  0  0
    6.8116  -23.3791  -25.3105 O   0  0  0  0  0  0  0  0  0  0  0  0
  1  2  1  0
  2  3  2  0
  3  4  1  0
  4  5  2  0
  4  6  1  0
  6  7  1  0
  7  8  1  0
  8  9  1  0
  9 10  1  0
 11 10  1  6
 11 12  1  0
 12 13  1  0
 13 14  2  0
 13 15  1  0
 15 16  1  1
 16 17  1  0
 17 18  1  0
 18 19  1  0
 19 20  1  0
 20 21  1  0
 20 22  2  0
 15 23  1  0
 23 24  1  0
 24 25  2  0
 26 24  1  6
 26 27  1  0
 27 28  1  0
 28 29  1  0
 29 30  1  0
 30 31  1  0
 31 32  2  0
 31 33  1  0
 33 34  1  1
 33 35  1  0
 35 36  1  0
 36 37  2  0
 36 38  1  0
 38 39  1  6
 38 40  1  0
 40 41  1  0
 41 42  1  0
 42 43  1  0
 43 44  1  0
 11 45  1  0
 45 46  2  0
 45 47  1  0
 47 48  1  0
 48 49  1  6
 49 50  1  0
 50 51  1  0
 51 52  1  0
 51 53  2  0
 48 54  1  0
 54 55  2  0
 54 56  1  0
 56 57  1  0
 57 58  1  1
 58 59  1  0
 59 60  1  0
 59 61  1  0
 57 62  1  0
 62 63  2  0
 62 64  1  0
 30 26  1  0
M  CHG  4  22   1  39   1  44   1  64  -1
M  END
>  <shape_align_shape_tanimoto>  (3) 
0.36996109458851695

>  <shape_align_color_tanimoto>  (3) 
0.056852003798066639

>  <metric>  (3) 
combo

>  <metric_score>  (3) 
0.213

>  <template_pid>  (3) 
5HJD

>  <template_shape_score>  (3) 
0.370

>  <template_color_score>  (3) 
0.057

>  <template_combo_score>  (3) 
0.213

$$$$
