1SZM_shape_pose
     RDKit          3D

 33 38  0  0  0  0  0  0  0  0999 V2000
  -13.6680   54.6198    1.7710 C   0  0  0  0  0  0  0  0  0  0  0  0
  -14.3813   55.5652    2.5919 N   0  0  1  0  0  0  0  0  0  0  0  0
  -13.3418   56.4019    3.2015 C   0  0  0  0  0  0  0  0  0  0  0  0
  -12.7994   57.1779    2.0217 C   0  0  0  0  0  0  0  0  0  0  0  0
  -13.8979   57.0327    0.9467 C   0  0  0  0  0  0  0  0  0  0  0  0
  -15.0640   56.5812    1.7612 C   0  0  1  0  0  0  0  0  0  0  0  0
  -16.2074   55.9831    1.0480 C   0  0  0  0  0  0  0  0  0  0  0  0
  -17.0530   56.8241    0.1986 C   0  0  0  0  0  0  0  0  0  0  0  0
  -16.5096   57.5352   -0.8999 N   0  0  0  0  0  0  0  0  0  0  0  0
  -16.2795   56.9622   -2.1194 C   0  0  0  0  0  0  0  0  0  0  0  0
  -15.7319   57.8571   -2.9890 C   0  0  0  0  0  0  0  0  0  0  0  0
  -15.2741   57.7270   -4.3658 C   0  0  0  0  0  0  0  0  0  0  0  0
  -14.4346   56.8719   -4.9260 C   0  0  0  0  0  0  0  0  0  0  0  0
  -13.6731   55.7689   -4.3882 C   0  0  0  0  0  0  0  0  0  0  0  0
  -14.0337   54.6949   -3.6086 C   0  0  0  0  0  0  0  0  0  0  0  0
  -12.9621   53.9285   -3.3143 N   0  0  0  0  0  0  0  0  0  0  0  0
  -11.8789   54.4764   -3.8894 C   0  0  0  0  0  0  0  0  0  0  0  0
  -10.5699   54.0645   -3.8699 C   0  0  0  0  0  0  0  0  0  0  0  0
   -9.5903   54.7915   -4.5353 C   0  0  0  0  0  0  0  0  0  0  0  0
   -9.9871   55.9290   -5.2061 C   0  0  0  0  0  0  0  0  0  0  0  0
  -11.3102   56.3278   -5.2144 C   0  0  0  0  0  0  0  0  0  0  0  0
  -12.2928   55.6166   -4.5597 C   0  0  0  0  0  0  0  0  0  0  0  0
  -14.3635   57.2010   -6.3779 C   0  0  0  0  0  0  0  0  0  0  0  0
  -13.6826   56.6277   -7.2637 O   0  0  0  0  0  0  0  0  0  0  0  0
  -15.2096   58.3049   -6.6541 N   0  0  0  0  0  0  0  0  0  0  0  0
  -15.7931   58.6539   -5.4081 C   0  0  0  0  0  0  0  0  0  0  0  0
  -16.6091   59.5974   -5.2564 O   0  0  0  0  0  0  0  0  0  0  0  0
  -15.6115   59.0484   -2.2894 C   0  0  0  0  0  0  0  0  0  0  0  0
  -15.1490   60.3152   -2.5633 C   0  0  0  0  0  0  0  0  0  0  0  0
  -15.1597   61.3374   -1.6134 C   0  0  0  0  0  0  0  0  0  0  0  0
  -15.6450   61.1050   -0.3412 C   0  0  0  0  0  0  0  0  0  0  0  0
  -16.1049   59.8360   -0.0748 C   0  0  0  0  0  0  0  0  0  0  0  0
  -16.0943   58.8163   -1.0217 C   0  0  0  0  0  0  0  0  0  0  0  0
  2  1  1  6
  2  3  1  0
  3  4  1  0
  4  5  1  0
  5  6  1  0
  6  7  1  6
  7  8  1  0
  8  9  1  0
  9 10  1  0
 10 11  2  0
 11 12  1  0
 12 13  2  0
 13 14  1  0
 14 15  2  0
 15 16  1  0
 16 17  1  0
 17 18  2  0
 18 19  1  0
 19 20  2  0
 20 21  1  0
 21 22  2  0
 13 23  1  0
 23 24  2  0
 23 25  1  0
 25 26  1  0
 26 27  2  0
 11 28  1  0
 28 29  2  0
 29 30  1  0
 30 31  2  0
 31 32  1  0
 32 33  2  0
  6  2  1  0
 33  9  1  0
 26 12  1  0
 33 28  1  0
 22 14  1  0
 22 17  1  0
M  CHG  1   2   1
M  END
>  <shape_align_shape_tanimoto>  (1) 
0.30761087527051684

>  <shape_align_color_tanimoto>  (1) 
0.00374135661743698

>  <metric>  (1) 
shape

>  <metric_score>  (1) 
0.308

>  <template_pid>  (1) 
1SZM

>  <template_shape_score>  (1) 
0.308

>  <template_color_score>  (1) 
0.004

>  <template_combo_score>  (1) 
0.156

$$$$
1SZM_color_pose
     RDKit          3D

 33 38  0  0  0  0  0  0  0  0999 V2000
  -17.2798   61.2976   -8.8789 C   0  0  0  0  0  0  0  0  0  0  0  0
  -17.4089   60.3683   -7.7708 N   0  0  1  0  0  0  0  0  0  0  0  0
  -18.8419   60.0327   -7.6996 C   0  0  0  0  0  0  0  0  0  0  0  0
  -19.0677   58.9638   -8.7518 C   0  0  0  0  0  0  0  0  0  0  0  0
  -17.6639   58.5498   -9.1641 C   0  0  0  0  0  0  0  0  0  0  0  0
  -16.8433   59.0823   -8.0111 C   0  0  1  0  0  0  0  0  0  0  0  0
  -15.3875   59.0336   -8.2809 C   0  0  0  0  0  0  0  0  0  0  0  0
  -14.5122   59.5536   -7.2019 C   0  0  0  0  0  0  0  0  0  0  0  0
  -14.6619   58.8487   -5.9446 N   0  0  0  0  0  0  0  0  0  0  0  0
  -15.4711   59.1401   -4.8992 C   0  0  0  0  0  0  0  0  0  0  0  0
  -15.3147   58.2370   -3.8845 C   0  0  0  0  0  0  0  0  0  0  0  0
  -15.9218   58.1373   -2.5662 C   0  0  0  0  0  0  0  0  0  0  0  0
  -16.0394   59.0037   -1.5823 C   0  0  0  0  0  0  0  0  0  0  0  0
  -15.6075   60.3840   -1.4413 C   0  0  0  0  0  0  0  0  0  0  0  0
  -15.7735   61.4837   -2.2371 C   0  0  0  0  0  0  0  0  0  0  0  0
  -15.1612   62.5642   -1.6908 N   0  0  0  0  0  0  0  0  0  0  0  0
  -14.5834   62.1982   -0.5306 C   0  0  0  0  0  0  0  0  0  0  0  0
  -13.8421   62.9034    0.3997 C   0  0  0  0  0  0  0  0  0  0  0  0
  -13.3300   62.2985    1.5447 C   0  0  0  0  0  0  0  0  0  0  0  0
  -13.5901   60.9576    1.7196 C   0  0  0  0  0  0  0  0  0  0  0  0
  -14.3414   60.2488    0.7745 C   0  0  0  0  0  0  0  0  0  0  0  0
  -14.8489   60.8487   -0.3578 C   0  0  0  0  0  0  0  0  0  0  0  0
  -16.7870   58.3497   -0.4675 C   0  0  0  0  0  0  0  0  0  0  0  0
  -17.1035   58.8403    0.6367 O   0  0  0  0  0  0  0  0  0  0  0  0
  -17.1135   57.0207   -0.8464 N   0  0  0  0  0  0  0  0  0  0  0  0
  -16.5825   56.8675   -2.1543 C   0  0  0  0  0  0  0  0  0  0  0  0
  -16.6865   55.8042   -2.8086 O   0  0  0  0  0  0  0  0  0  0  0  0
  -14.3515   57.3399   -4.3383 C   0  0  0  0  0  0  0  0  0  0  0  0
  -13.7390   56.2200   -3.8262 C   0  0  0  0  0  0  0  0  0  0  0  0
  -12.7790   55.5205   -4.5484 C   0  0  0  0  0  0  0  0  0  0  0  0
  -12.3921   55.9117   -5.8114 C   0  0  0  0  0  0  0  0  0  0  0  0
  -13.0095   57.0413   -6.3268 C   0  0  0  0  0  0  0  0  0  0  0  0
  -13.9673   57.7443   -5.6138 C   0  0  0  0  0  0  0  0  0  0  0  0
  2  1  1  6
  2  3  1  0
  3  4  1  0
  4  5  1  0
  5  6  1  0
  6  7  1  6
  7  8  1  0
  8  9  1  0
  9 10  1  0
 10 11  2  0
 11 12  1  0
 12 13  2  0
 13 14  1  0
 14 15  2  0
 15 16  1  0
 16 17  1  0
 17 18  2  0
 18 19  1  0
 19 20  2  0
 20 21  1  0
 21 22  2  0
 13 23  1  0
 23 24  2  0
 23 25  1  0
 25 26  1  0
 26 27  2  0
 11 28  1  0
 28 29  2  0
 29 30  1  0
 30 31  2  0
 31 32  1  0
 32 33  2  0
  6  2  1  0
 33  9  1  0
 26 12  1  0
 33 28  1  0
 22 14  1  0
 22 17  1  0
M  CHG  1   2   1
M  END
>  <shape_align_shape_tanimoto>  (2) 
0.25485138776666311

>  <shape_align_color_tanimoto>  (2) 
0.038630641297824904

>  <metric>  (2) 
color

>  <metric_score>  (2) 
0.039

>  <template_pid>  (2) 
1SZM

>  <template_shape_score>  (2) 
0.255

>  <template_color_score>  (2) 
0.039

>  <template_combo_score>  (2) 
0.147

$$$$
1SZM_combo_pose
     RDKit          3D

 33 38  0  0  0  0  0  0  0  0999 V2000
   -9.4265   56.4753   -4.2377 C   0  0  0  0  0  0  0  0  0  0  0  0
   -9.9988   56.1082   -5.5205 N   0  0  1  0  0  0  0  0  0  0  0  0
   -9.4070   54.9084   -6.0522 C   0  0  0  0  0  0  0  0  0  0  0  0
  -10.3969   54.3367   -7.0269 C   0  0  0  0  0  0  0  0  0  0  0  0
  -11.7103   54.8553   -6.5436 C   0  0  0  0  0  0  0  0  0  0  0  0
  -11.4327   55.8215   -5.3966 C   0  0  1  0  0  0  0  0  0  0  0  0
  -11.7492   55.1645   -4.1063 C   0  0  0  0  0  0  0  0  0  0  0  0
  -13.2000   54.8892   -3.9113 C   0  0  0  0  0  0  0  0  0  0  0  0
  -13.9279   56.1413   -3.9301 N   0  0  0  0  0  0  0  0  0  0  0  0
  -14.0232   56.9337   -2.8217 C   0  0  0  0  0  0  0  0  0  0  0  0
  -14.7280   58.0811   -3.1146 C   0  0  0  0  0  0  0  0  0  0  0  0
  -15.0432   59.1649   -2.1751 C   0  0  0  0  0  0  0  0  0  0  0  0
  -15.4986   59.0040   -0.9164 C   0  0  0  0  0  0  0  0  0  0  0  0
  -15.7419   57.7076   -0.3210 C   0  0  0  0  0  0  0  0  0  0  0  0
  -16.3788   56.6613   -0.9939 C   0  0  0  0  0  0  0  0  0  0  0  0
  -16.4533   55.5825   -0.1928 N   0  0  0  0  0  0  0  0  0  0  0  0
  -15.8778   55.9054    0.9872 C   0  0  0  0  0  0  0  0  0  0  0  0
  -15.6886   55.1603    2.1480 C   0  0  0  0  0  0  0  0  0  0  0  0
  -15.0542   55.7285    3.2417 C   0  0  0  0  0  0  0  0  0  0  0  0
  -14.6181   57.0389    3.1535 C   0  0  0  0  0  0  0  0  0  0  0  0
  -14.8027   57.7807    2.0074 C   0  0  0  0  0  0  0  0  0  0  0  0
  -15.4341   57.2104    0.9250 C   0  0  0  0  0  0  0  0  0  0  0  0
  -15.6859   60.3180   -0.3144 C   0  0  0  0  0  0  0  0  0  0  0  0
  -16.0990   60.6130    0.8458 O   0  0  0  0  0  0  0  0  0  0  0  0
  -15.3253   61.3304   -1.2503 N   0  0  0  0  0  0  0  0  0  0  0  0
  -14.9197   60.5986   -2.4227 C   0  0  0  0  0  0  0  0  0  0  0  0
  -14.5313   61.2050   -3.4549 O   0  0  0  0  0  0  0  0  0  0  0  0
  -15.0811   57.9974   -4.4420 C   0  0  0  0  0  0  0  0  0  0  0  0
  -15.7892   58.8023   -5.3050 C   0  0  0  0  0  0  0  0  0  0  0  0
  -16.0233   58.4716   -6.6228 C   0  0  0  0  0  0  0  0  0  0  0  0
  -15.5148   57.2765   -7.0694 C   0  0  0  0  0  0  0  0  0  0  0  0
  -14.8029   56.4680   -6.1998 C   0  0  0  0  0  0  0  0  0  0  0  0
  -14.5647   56.7906   -4.8866 C   0  0  0  0  0  0  0  0  0  0  0  0
  2  1  1  1
  2  3  1  0
  3  4  1  0
  4  5  1  0
  5  6  1  0
  6  7  1  1
  7  8  1  0
  8  9  1  0
  9 10  1  0
 10 11  2  0
 11 12  1  0
 12 13  2  0
 13 14  1  0
 14 15  2  0
 15 16  1  0
 16 17  1  0
 17 18  2  0
 18 19  1  0
 19 20  2  0
 20 21  1  0
 21 22  2  0
 13 23  1  0
 23 24  2  0
 23 25  1  0
 25 26  1  0
 26 27  2  0
 11 28  1  0
 28 29  2  0
 29 30  1  0
 30 31  2  0
 31 32  1  0
 32 33  2  0
  6  2  1  0
 33  9  1  0
 26 12  1  0
 33 28  1  0
 22 14  1  0
 22 17  1  0
M  CHG  1   2   1
M  END
>  <shape_align_shape_tanimoto>  (3) 
0.29048491402012661

>  <shape_align_color_tanimoto>  (3) 
0.021649371614844509

>  <metric>  (3) 
combo

>  <metric_score>  (3) 
0.156

>  <template_pid>  (3) 
1SZM

>  <template_shape_score>  (3) 
0.290

>  <template_color_score>  (3) 
0.022

>  <template_combo_score>  (3) 
0.156

$$$$
