4IAW_shape_pose
     RDKit          3D

 42 43  0  0  0  0  0  0  0  0999 V2000
   16.2857   -1.4809    4.9740 N   0  0  0  0  0  0  0  0  0  0  0  0
   16.6733   -1.8621    6.2732 C   0  0  0  0  0  0  0  0  0  0  0  0
   18.2443   -2.3533    6.4357 S   0  0  0  0  0  0  0  0  0  0  0  0
   15.8580   -1.8612    7.4196 N   0  0  0  0  0  0  0  0  0  0  0  0
   14.5046   -1.4842    7.5040 C   0  0  0  0  0  0  0  0  0  0  0  0
   13.7289   -1.0442    6.4686 C   0  0  0  0  0  0  0  0  0  0  0  0
   12.4046   -0.6901    6.6220 C   0  0  0  0  0  0  0  0  0  0  0  0
   11.7684   -0.7647    7.8782 C   0  0  0  0  0  0  0  0  0  0  0  0
   10.3520   -0.3528    7.9008 C   0  0  0  0  0  0  0  0  0  0  0  0
    9.3310   -1.3945    7.7088 C   0  0  2  0  0  0  0  0  0  0  0  0
    9.1500   -2.5243    8.6459 C   0  0  0  0  0  0  0  0  0  0  0  0
    8.7226   -2.3349    9.9665 N   0  0  2  0  0  0  0  0  0  0  0  0
    9.1482   -1.2572   10.7850 C   0  0  0  0  0  0  0  0  0  0  0  0
    8.2015   -0.0727   10.7886 C   0  0  0  0  0  0  0  0  0  0  0  0
    8.4782    0.9518   11.4598 O   0  0  0  0  0  0  0  0  0  0  0  0
    7.0225   -0.0841   10.0652 O   0  0  0  0  0  0  0  0  0  0  0  0
    8.5208   -3.5297   10.7394 C   0  0  1  0  0  0  0  0  0  0  0  0
    7.3959   -4.3319   10.0926 C   0  0  0  0  0  0  0  0  0  0  0  0
    6.9193   -5.4347   11.0130 C   0  0  0  0  0  0  0  0  0  0  0  0
    7.5750   -5.3396   12.3384 C   0  0  0  0  0  0  0  0  0  0  0  0
    9.0629   -5.2068   12.3408 C   0  0  0  0  0  0  0  0  0  0  0  0
    9.5677   -4.4493   11.0938 C   0  0  2  0  0  0  0  0  0  0  0  0
   10.9159   -4.0193   11.3070 N   0  0  0  0  0  0  0  0  0  0  0  0
   11.8264   -4.6621   10.4094 C   0  0  0  0  0  0  0  0  0  0  0  0
   12.5372   -5.8503   10.8288 C   0  0  0  0  0  0  0  0  0  0  0  0
   13.3544   -6.3650    9.9680 O   0  0  0  0  0  0  0  0  0  0  0  0
   12.4732   -6.5263   12.0249 O   0  0  0  0  0  0  0  0  0  0  0  0
   11.3722   -4.1656   12.6644 C   0  0  0  0  0  0  0  0  0  0  0  0
   12.8173   -3.8935   12.7810 C   0  0  0  0  0  0  0  0  0  0  0  0
   13.5858   -3.5496   11.8707 O   0  0  0  0  0  0  0  0  0  0  0  0
   13.3877   -4.0387   14.0606 O   0  0  0  0  0  0  0  0  0  0  0  0
    9.2508   -1.8305    6.3069 N   0  0  0  0  0  0  0  0  0  0  0  0
    7.8788   -2.0033    5.8834 C   0  0  0  0  0  0  0  0  0  0  0  0
    7.1796   -0.7079    5.7332 C   0  0  0  0  0  0  0  0  0  0  0  0
    5.9597   -0.7578    5.3679 O   0  0  0  0  0  0  0  0  0  0  0  0
    7.7168    0.5294    5.9481 O   0  0  0  0  0  0  0  0  0  0  0  0
   10.0961   -2.9167    5.9904 C   0  0  0  0  0  0  0  0  0  0  0  0
    9.4727   -4.2169    5.6989 C   0  0  0  0  0  0  0  0  0  0  0  0
    8.2647   -4.5034    5.7114 O   0  0  0  0  0  0  0  0  0  0  0  0
   10.3533   -5.2672    5.3642 O   0  0  0  0  0  0  0  0  0  0  0  0
   12.5369   -1.2004    8.9040 C   0  0  0  0  0  0  0  0  0  0  0  0
   13.8739   -1.5577    8.7482 C   0  0  0  0  0  0  0  0  0  0  0  0
  1  2  1  0
  2  3  2  0
  2  4  1  0
  4  5  1  0
  5  6  2  0
  6  7  1  0
  7  8  2  0
  8  9  1  0
 10  9  1  6
 10 11  1  0
 12 11  1  6
 12 13  1  0
 13 14  1  0
 14 15  2  0
 14 16  1  0
 12 17  1  0
 17 18  1  6
 18 19  1  0
 19 20  1  0
 20 21  1  0
 21 22  1  0
 22 23  1  1
 23 24  1  0
 24 25  1  0
 25 26  2  0
 25 27  1  0
 23 28  1  0
 28 29  1  0
 29 30  2  0
 29 31  1  0
 10 32  1  0
 32 33  1  0
 33 34  1  0
 34 35  2  0
 34 36  1  0
 32 37  1  0
 37 38  1  0
 38 39  2  0
 38 40  1  0
  8 41  1  0
 41 42  2  0
 42  5  1  0
 22 17  1  0
M  CHG  8  12   1  16  -1  23   1  27  -1  31  -1  32   1  36  -1  40  -1
M  END
>  <shape_align_shape_tanimoto>  (1) 
0.56732565787428768

>  <shape_align_color_tanimoto>  (1) 
0.028624769357602064

>  <metric>  (1) 
shape

>  <metric_score>  (1) 
0.567

>  <template_pid>  (1) 
4IAW

>  <template_shape_score>  (1) 
0.567

>  <template_color_score>  (1) 
0.029

>  <template_combo_score>  (1) 
0.298

$$$$
4IAW_color_pose
     RDKit          3D

 42 43  0  0  0  0  0  0  0  0999 V2000
   16.6358    0.1928    5.1946 N   0  0  0  0  0  0  0  0  0  0  0  0
   17.8475   -0.5595    5.1241 C   0  0  0  0  0  0  0  0  0  0  0  0
   19.0441    0.0627    4.1984 S   0  0  0  0  0  0  0  0  0  0  0  0
   18.0051   -1.7990    5.8269 N   0  0  0  0  0  0  0  0  0  0  0  0
   16.8841   -2.2347    6.5829 C   0  0  0  0  0  0  0  0  0  0  0  0
   15.5822   -2.1828    6.0896 C   0  0  0  0  0  0  0  0  0  0  0  0
   14.5003   -2.5845    6.8398 C   0  0  0  0  0  0  0  0  0  0  0  0
   14.6270   -3.0671    8.1342 C   0  0  0  0  0  0  0  0  0  0  0  0
   13.5392   -3.5110    8.9814 C   0  0  0  0  0  0  0  0  0  0  0  0
   12.8774   -2.6041    9.9308 C   0  0  2  0  0  0  0  0  0  0  0  0
   12.1984   -1.3832    9.4806 C   0  0  0  0  0  0  0  0  0  0  0  0
   11.1158   -1.4595    8.5521 N   0  0  2  0  0  0  0  0  0  0  0  0
   10.8656   -0.0733    8.1809 C   0  0  0  0  0  0  0  0  0  0  0  0
   11.9742    0.6240    7.5175 C   0  0  0  0  0  0  0  0  0  0  0  0
   13.0887    0.1826    7.2003 O   0  0  0  0  0  0  0  0  0  0  0  0
   11.7412    1.9833    7.1945 O   0  0  0  0  0  0  0  0  0  0  0  0
    9.8799   -1.9876    9.1833 C   0  0  1  0  0  0  0  0  0  0  0  0
    8.7362   -1.1134    8.6341 C   0  0  0  0  0  0  0  0  0  0  0  0
    7.3689   -1.6421    9.0917 C   0  0  0  0  0  0  0  0  0  0  0  0
    7.1530   -2.8737    8.2526 C   0  0  0  0  0  0  0  0  0  0  0  0
    8.4265   -3.5235    7.8406 C   0  0  0  0  0  0  0  0  0  0  0  0
    9.5675   -3.3890    8.8652 C   0  0  2  0  0  0  0  0  0  0  0  0
    9.4980   -4.3742    9.9098 N   0  0  0  0  0  0  0  0  0  0  0  0
    8.7451   -5.5480    9.4955 C   0  0  0  0  0  0  0  0  0  0  0  0
    9.0912   -6.6817   10.3700 C   0  0  0  0  0  0  0  0  0  0  0  0
    9.9217   -6.7308   11.2836 O   0  0  0  0  0  0  0  0  0  0  0  0
    8.3724   -7.8785   10.1285 O   0  0  0  0  0  0  0  0  0  0  0  0
    9.2130   -4.0000   11.2180 C   0  0  0  0  0  0  0  0  0  0  0  0
    7.8603   -4.0379   11.7577 C   0  0  0  0  0  0  0  0  0  0  0  0
    6.8013   -4.3711   11.1972 O   0  0  0  0  0  0  0  0  0  0  0  0
    7.7230   -3.6392   13.1167 O   0  0  0  0  0  0  0  0  0  0  0  0
   13.6586   -2.3963   11.1475 N   0  0  0  0  0  0  0  0  0  0  0  0
   14.5467   -1.3183   11.1478 C   0  0  0  0  0  0  0  0  0  0  0  0
   14.0976   -0.1554   11.9239 C   0  0  0  0  0  0  0  0  0  0  0  0
   13.0460   -0.0044   12.5587 O   0  0  0  0  0  0  0  0  0  0  0  0
   14.9885    0.9487   11.9552 O   0  0  0  0  0  0  0  0  0  0  0  0
   12.8565   -2.4889   12.3396 C   0  0  0  0  0  0  0  0  0  0  0  0
   12.5661   -3.9063   12.6581 C   0  0  0  0  0  0  0  0  0  0  0  0
   12.9491   -4.8966   12.0116 O   0  0  0  0  0  0  0  0  0  0  0  0
   11.7904   -4.1480   13.7907 O   0  0  0  0  0  0  0  0  0  0  0  0
   15.9460   -3.1147    8.6180 C   0  0  0  0  0  0  0  0  0  0  0  0
   17.0162   -2.7186    7.8798 C   0  0  0  0  0  0  0  0  0  0  0  0
  1  2  1  0
  2  3  2  0
  2  4  1  0
  4  5  1  0
  5  6  2  0
  6  7  1  0
  7  8  2  0
  8  9  1  0
 10  9  1  6
 10 11  1  0
 12 11  1  1
 12 13  1  0
 13 14  1  0
 14 15  2  0
 14 16  1  0
 12 17  1  0
 17 18  1  6
 18 19  1  0
 19 20  1  0
 20 21  1  0
 21 22  1  0
 22 23  1  1
 23 24  1  0
 24 25  1  0
 25 26  2  0
 25 27  1  0
 23 28  1  0
 28 29  1  0
 29 30  2  0
 29 31  1  0
 10 32  1  0
 32 33  1  0
 33 34  1  0
 34 35  2  0
 34 36  1  0
 32 37  1  0
 37 38  1  0
 38 39  2  0
 38 40  1  0
  8 41  1  0
 41 42  2  0
 42  5  1  0
 22 17  1  0
M  CHG  8  12   1  16  -1  23   1  27  -1  31  -1  32   1  36  -1  40  -1
M  END
>  <shape_align_shape_tanimoto>  (2) 
0.46521971561976599

>  <shape_align_color_tanimoto>  (2) 
0.11506590852802287

>  <metric>  (2) 
color

>  <metric_score>  (2) 
0.115

>  <template_pid>  (2) 
4IAW

>  <template_shape_score>  (2) 
0.465

>  <template_color_score>  (2) 
0.115

>  <template_combo_score>  (2) 
0.290

$$$$
4IAW_combo_pose
     RDKit          3D

 42 43  0  0  0  0  0  0  0  0999 V2000
   17.7308    0.0861    7.9696 N   0  0  0  0  0  0  0  0  0  0  0  0
   18.2903   -0.5067    6.7993 C   0  0  0  0  0  0  0  0  0  0  0  0
   19.8733   -0.2851    6.4699 S   0  0  0  0  0  0  0  0  0  0  0  0
   17.4494   -1.2899    5.9252 N   0  0  0  0  0  0  0  0  0  0  0  0
   16.0750   -1.4551    6.2425 C   0  0  0  0  0  0  0  0  0  0  0  0
   15.1271   -0.7101    5.5812 C   0  0  0  0  0  0  0  0  0  0  0  0
   13.8081   -0.8954    5.9314 C   0  0  0  0  0  0  0  0  0  0  0  0
   13.3675   -1.7667    6.8891 C   0  0  0  0  0  0  0  0  0  0  0  0
   11.9818   -2.0104    7.2857 C   0  0  0  0  0  0  0  0  0  0  0  0
   11.3533   -1.2466    8.3577 C   0  0  2  0  0  0  0  0  0  0  0  0
    9.8767   -1.7037    8.6178 C   0  0  0  0  0  0  0  0  0  0  0  0
    9.7511   -3.0527    9.0503 N   0  0  2  0  0  0  0  0  0  0  0  0
    8.9528   -3.9146    8.2484 C   0  0  0  0  0  0  0  0  0  0  0  0
    7.7193   -3.3462    7.6697 C   0  0  0  0  0  0  0  0  0  0  0  0
    7.2966   -2.1824    7.8473 O   0  0  0  0  0  0  0  0  0  0  0  0
    6.9682   -4.2080    6.8463 O   0  0  0  0  0  0  0  0  0  0  0  0
    9.5536   -3.1587   10.4851 C   0  0  1  0  0  0  0  0  0  0  0  0
    8.3534   -2.5766   11.0841 C   0  0  0  0  0  0  0  0  0  0  0  0
    7.1068   -3.3824   11.1343 C   0  0  0  0  0  0  0  0  0  0  0  0
    7.3649   -4.7942   11.6012 C   0  0  0  0  0  0  0  0  0  0  0  0
    8.7944   -4.9194   12.0875 C   0  0  0  0  0  0  0  0  0  0  0  0
    9.7907   -4.5248   11.0122 C   0  0  2  0  0  0  0  0  0  0  0  0
   11.1079   -4.6927   11.6507 N   0  0  0  0  0  0  0  0  0  0  0  0
   11.5486   -6.0761   11.5291 C   0  0  0  0  0  0  0  0  0  0  0  0
   12.4397   -6.2035   10.3306 C   0  0  0  0  0  0  0  0  0  0  0  0
   12.7189   -5.1753    9.6525 O   0  0  0  0  0  0  0  0  0  0  0  0
   12.9304   -7.4736   10.0088 O   0  0  0  0  0  0  0  0  0  0  0  0
   11.1208   -4.3370   13.0314 C   0  0  0  0  0  0  0  0  0  0  0  0
   12.5539   -4.3001   13.4662 C   0  0  0  0  0  0  0  0  0  0  0  0
   12.7639   -4.0003   14.6852 O   0  0  0  0  0  0  0  0  0  0  0  0
   13.6070   -4.5694   12.6236 O   0  0  0  0  0  0  0  0  0  0  0  0
   11.4157    0.1507    8.5044 N   0  0  0  0  0  0  0  0  0  0  0  0
   12.7372    0.6812    8.4392 C   0  0  0  0  0  0  0  0  0  0  0  0
   12.9120    1.6476    9.6109 C   0  0  0  0  0  0  0  0  0  0  0  0
   11.9538    1.8252   10.4231 O   0  0  0  0  0  0  0  0  0  0  0  0
   14.0894    2.3305    9.8028 O   0  0  0  0  0  0  0  0  0  0  0  0
   10.4035    0.9956    7.9953 C   0  0  0  0  0  0  0  0  0  0  0  0
   10.0065    1.0083    6.6142 C   0  0  0  0  0  0  0  0  0  0  0  0
    9.0430    1.8428    6.3177 O   0  0  0  0  0  0  0  0  0  0  0  0
   10.4631    0.2953    5.5425 O   0  0  0  0  0  0  0  0  0  0  0  0
   14.3758   -2.5071    7.5387 C   0  0  0  0  0  0  0  0  0  0  0  0
   15.7069   -2.3527    7.2188 C   0  0  0  0  0  0  0  0  0  0  0  0
  1  2  1  0
  2  3  2  0
  2  4  1  0
  4  5  1  0
  5  6  2  0
  6  7  1  0
  7  8  2  0
  8  9  1  0
 10  9  1  6
 10 11  1  0
 12 11  1  6
 12 13  1  0
 13 14  1  0
 14 15  2  0
 14 16  1  0
 12 17  1  0
 17 18  1  6
 18 19  1  0
 19 20  1  0
 20 21  1  0
 21 22  1  0
 22 23  1  1
 23 24  1  0
 24 25  1  0
 25 26  2  0
 25 27  1  0
 23 28  1  0
 28 29  1  0
 29 30  2  0
 29 31  1  0
 10 32  1  0
 32 33  1  0
 33 34  1  0
 34 35  2  0
 34 36  1  0
 32 37  1  0
 37 38  1  0
 38 39  2  0
 38 40  1  0
  8 41  1  0
 41 42  2  0
 42  5  1  0
 22 17  1  0
M  CHG  8  12   1  16  -1  23   1  27  -1  31  -1  32   1  36  -1  40  -1
M  END
>  <shape_align_shape_tanimoto>  (3) 
0.5472089406701528

>  <shape_align_color_tanimoto>  (3) 
0.071196687734513611

>  <metric>  (3) 
combo

>  <metric_score>  (3) 
0.309

>  <template_pid>  (3) 
4IAW

>  <template_shape_score>  (3) 
0.547

>  <template_color_score>  (3) 
0.071

>  <template_combo_score>  (3) 
0.309

$$$$
