5ZO7_shape_pose
     RDKit          3D

 30 33  0  0  0  0  0  0  0  0999 V2000
  -27.2377   -0.8173  -18.3046 C   0  0  0  0  0  0  0  0  0  0  0  0
  -27.5390    0.0134  -17.1846 O   0  0  0  0  0  0  0  0  0  0  0  0
  -26.8671    1.2164  -17.0148 C   0  0  0  0  0  0  0  0  0  0  0  0
  -25.8994    1.6716  -17.8817 C   0  0  0  0  0  0  0  0  0  0  0  0
  -25.2546    2.8948  -17.6609 C   0  0  0  0  0  0  0  0  0  0  0  0
  -25.5515    3.6950  -16.5798 C   0  0  0  0  0  0  0  0  0  0  0  0
  -24.8740    5.0091  -16.3324 C   0  0  0  0  0  0  0  0  0  0  0  0
  -23.1531    4.8374  -16.8807 S   0  0  0  0  0  0  0  0  0  0  0  0
  -22.0959    6.2026  -16.5017 C   0  0  0  0  0  0  0  0  0  0  0  0
  -22.2912    7.4814  -17.2154 C   0  0  2  0  0  0  0  0  0  0  0  0
  -22.1279    7.4687  -18.6336 N   0  0  0  0  0  0  0  0  0  0  0  0
  -21.2721    8.4514  -16.6717 C   0  0  0  0  0  0  0  0  0  0  0  0
  -21.4075    9.6963  -16.8178 O   0  0  0  0  0  0  0  0  0  0  0  0
  -20.1455    8.0005  -15.9887 O   0  0  0  0  0  0  0  0  0  0  0  0
  -25.4921    6.0318  -17.1789 C   0  0  0  0  0  0  0  0  0  0  0  0
  -25.0003    6.0536  -18.4664 C   0  0  0  0  0  0  0  0  0  0  0  0
  -25.4335    6.9184  -19.4475 C   0  0  0  0  0  0  0  0  0  0  0  0
  -26.4185    7.8267  -19.1434 C   0  0  0  0  0  0  0  0  0  0  0  0
  -26.9224    7.8284  -17.8781 C   0  0  0  0  0  0  0  0  0  0  0  0
  -26.4819    6.9445  -16.8704 C   0  0  0  0  0  0  0  0  0  0  0  0
  -27.2505    7.2611  -15.6665 C   0  0  0  0  0  0  0  0  0  0  0  0
  -27.0827    6.5480  -14.4254 C   0  0  0  0  0  0  0  0  0  0  0  0
  -25.7968    5.9456  -14.0978 C   0  0  0  0  0  0  0  0  0  0  0  0
  -25.4777    6.0563  -12.7390 C   0  0  0  0  0  0  0  0  0  0  0  0
  -24.3360    5.5668  -12.1934 C   0  0  0  0  0  0  0  0  0  0  0  0
  -23.4331    4.9284  -12.9858 C   0  0  0  0  0  0  0  0  0  0  0  0
  -23.7168    4.8029  -14.3260 C   0  0  0  0  0  0  0  0  0  0  0  0
  -24.8969    5.3092  -14.8897 C   0  0  0  0  0  0  0  0  0  0  0  0
  -26.5317    3.2143  -15.7170 C   0  0  0  0  0  0  0  0  0  0  0  0
  -27.1746    2.0046  -15.9285 C   0  0  0  0  0  0  0  0  0  0  0  0
  1  2  1  0
  2  3  1  0
  3  4  2  0
  4  5  1  0
  5  6  2  0
  6  7  1  0
  7  8  1  0
  8  9  1  0
  9 10  1  0
 10 11  1  6
 10 12  1  0
 12 13  2  0
 12 14  1  0
  7 15  1  0
 15 16  2  0
 16 17  1  0
 17 18  2  0
 18 19  1  0
 19 20  2  0
 20 21  1  0
 21 22  1  0
 22 23  1  0
 23 24  2  0
 24 25  1  0
 25 26  2  0
 26 27  1  0
 27 28  2  0
  6 29  1  0
 29 30  2  0
 30  3  1  0
 28  7  1  0
 20 15  1  0
 28 23  1  0
M  CHG  2  11   1  14  -1
M  END
>  <shape_align_shape_tanimoto>  (1) 
0.5377837563927268

>  <shape_align_color_tanimoto>  (1) 
0.028529232594155646

>  <metric>  (1) 
shape

>  <metric_score>  (1) 
0.538

>  <template_pid>  (1) 
5ZO7

>  <template_shape_score>  (1) 
0.538

>  <template_color_score>  (1) 
0.029

>  <template_combo_score>  (1) 
0.283

$$$$
5ZO7_color_pose
     RDKit          3D

 30 33  0  0  0  0  0  0  0  0999 V2000
  -20.3209    9.7891  -16.6067 C   0  0  0  0  0  0  0  0  0  0  0  0
  -21.0196    9.0849  -17.6082 O   0  0  0  0  0  0  0  0  0  0  0  0
  -21.7606    7.9843  -17.2542 C   0  0  0  0  0  0  0  0  0  0  0  0
  -22.4490    7.2898  -18.2353 C   0  0  0  0  0  0  0  0  0  0  0  0
  -23.2040    6.1792  -17.9152 C   0  0  0  0  0  0  0  0  0  0  0  0
  -23.2813    5.7448  -16.5969 C   0  0  0  0  0  0  0  0  0  0  0  0
  -24.1284    4.5102  -16.2662 C   0  0  0  0  0  0  0  0  0  0  0  0
  -24.6882    3.7673  -17.7940 S   0  0  0  0  0  0  0  0  0  0  0  0
  -25.4648    2.2020  -17.7637 C   0  0  0  0  0  0  0  0  0  0  0  0
  -26.8102    2.0526  -17.1548 C   0  0  2  0  0  0  0  0  0  0  0  0
  -26.9508    2.3658  -15.7777 N   0  0  0  0  0  0  0  0  0  0  0  0
  -27.2067    0.6026  -17.3371 C   0  0  0  0  0  0  0  0  0  0  0  0
  -28.4162    0.2464  -17.2436 O   0  0  0  0  0  0  0  0  0  0  0  0
  -26.2525   -0.3730  -17.6114 O   0  0  0  0  0  0  0  0  0  0  0  0
  -25.2759    5.0729  -15.5315 C   0  0  0  0  0  0  0  0  0  0  0  0
  -25.9974    5.8885  -16.4069 C   0  0  0  0  0  0  0  0  0  0  0  0
  -27.1242    6.5766  -16.0095 C   0  0  0  0  0  0  0  0  0  0  0  0
  -27.5225    6.4312  -14.6979 C   0  0  0  0  0  0  0  0  0  0  0  0
  -26.8103    5.6289  -13.8433 C   0  0  0  0  0  0  0  0  0  0  0  0
  -25.6680    4.9270  -14.2343 C   0  0  0  0  0  0  0  0  0  0  0  0
  -25.1800    4.1576  -13.0764 C   0  0  0  0  0  0  0  0  0  0  0  0
  -23.7099    3.9651  -13.0211 C   0  0  0  0  0  0  0  0  0  0  0  0
  -23.0880    3.3505  -14.1926 C   0  0  0  0  0  0  0  0  0  0  0  0
  -22.1735    2.3775  -13.8497 C   0  0  0  0  0  0  0  0  0  0  0  0
  -21.4496    1.6455  -14.7634 C   0  0  0  0  0  0  0  0  0  0  0  0
  -21.6336    1.8819  -16.1014 C   0  0  0  0  0  0  0  0  0  0  0  0
  -22.5290    2.8353  -16.4725 C   0  0  0  0  0  0  0  0  0  0  0  0
  -23.2726    3.5882  -15.5501 C   0  0  0  0  0  0  0  0  0  0  0  0
  -22.6039    6.4259  -15.6227 C   0  0  0  0  0  0  0  0  0  0  0  0
  -21.8496    7.5348  -15.9400 C   0  0  0  0  0  0  0  0  0  0  0  0
  1  2  1  0
  2  3  1  0
  3  4  2  0
  4  5  1  0
  5  6  2  0
  6  7  1  0
  7  8  1  0
  8  9  1  0
  9 10  1  0
 10 11  1  1
 10 12  1  0
 12 13  2  0
 12 14  1  0
  7 15  1  0
 15 16  2  0
 16 17  1  0
 17 18  2  0
 18 19  1  0
 19 20  2  0
 20 21  1  0
 21 22  1  0
 22 23  1  0
 23 24  2  0
 24 25  1  0
 25 26  2  0
 26 27  1  0
 27 28  2  0
  6 29  1  0
 29 30  2  0
 30  3  1  0
 28  7  1  0
 20 15  1  0
 28 23  1  0
M  CHG  2  11   1  14  -1
M  END
>  <shape_align_shape_tanimoto>  (2) 
0.52136369911339753

>  <shape_align_color_tanimoto>  (2) 
0.087320578759611384

>  <metric>  (2) 
color

>  <metric_score>  (2) 
0.087

>  <template_pid>  (2) 
5ZO7

>  <template_shape_score>  (2) 
0.521

>  <template_color_score>  (2) 
0.087

>  <template_combo_score>  (2) 
0.304

$$$$
5ZO7_combo_pose
     RDKit          3D

 30 33  0  0  0  0  0  0  0  0999 V2000
  -20.3209    9.7891  -16.6067 C   0  0  0  0  0  0  0  0  0  0  0  0
  -21.0196    9.0849  -17.6082 O   0  0  0  0  0  0  0  0  0  0  0  0
  -21.7606    7.9843  -17.2542 C   0  0  0  0  0  0  0  0  0  0  0  0
  -22.4490    7.2898  -18.2353 C   0  0  0  0  0  0  0  0  0  0  0  0
  -23.2040    6.1792  -17.9152 C   0  0  0  0  0  0  0  0  0  0  0  0
  -23.2813    5.7448  -16.5969 C   0  0  0  0  0  0  0  0  0  0  0  0
  -24.1284    4.5102  -16.2662 C   0  0  0  0  0  0  0  0  0  0  0  0
  -24.6882    3.7673  -17.7940 S   0  0  0  0  0  0  0  0  0  0  0  0
  -25.4648    2.2020  -17.7637 C   0  0  0  0  0  0  0  0  0  0  0  0
  -26.8102    2.0526  -17.1548 C   0  0  2  0  0  0  0  0  0  0  0  0
  -26.9508    2.3658  -15.7777 N   0  0  0  0  0  0  0  0  0  0  0  0
  -27.2067    0.6026  -17.3371 C   0  0  0  0  0  0  0  0  0  0  0  0
  -28.4162    0.2464  -17.2436 O   0  0  0  0  0  0  0  0  0  0  0  0
  -26.2525   -0.3730  -17.6114 O   0  0  0  0  0  0  0  0  0  0  0  0
  -25.2759    5.0729  -15.5315 C   0  0  0  0  0  0  0  0  0  0  0  0
  -25.9974    5.8885  -16.4069 C   0  0  0  0  0  0  0  0  0  0  0  0
  -27.1242    6.5766  -16.0095 C   0  0  0  0  0  0  0  0  0  0  0  0
  -27.5225    6.4312  -14.6979 C   0  0  0  0  0  0  0  0  0  0  0  0
  -26.8103    5.6289  -13.8433 C   0  0  0  0  0  0  0  0  0  0  0  0
  -25.6680    4.9270  -14.2343 C   0  0  0  0  0  0  0  0  0  0  0  0
  -25.1800    4.1576  -13.0764 C   0  0  0  0  0  0  0  0  0  0  0  0
  -23.7099    3.9651  -13.0211 C   0  0  0  0  0  0  0  0  0  0  0  0
  -23.0880    3.3505  -14.1926 C   0  0  0  0  0  0  0  0  0  0  0  0
  -22.1735    2.3775  -13.8497 C   0  0  0  0  0  0  0  0  0  0  0  0
  -21.4496    1.6455  -14.7634 C   0  0  0  0  0  0  0  0  0  0  0  0
  -21.6336    1.8819  -16.1014 C   0  0  0  0  0  0  0  0  0  0  0  0
  -22.5290    2.8353  -16.4725 C   0  0  0  0  0  0  0  0  0  0  0  0
  -23.2726    3.5882  -15.5501 C   0  0  0  0  0  0  0  0  0  0  0  0
  -22.6039    6.4259  -15.6227 C   0  0  0  0  0  0  0  0  0  0  0  0
  -21.8496    7.5348  -15.9400 C   0  0  0  0  0  0  0  0  0  0  0  0
  1  2  1  0
  2  3  1  0
  3  4  2  0
  4  5  1  0
  5  6  2  0
  6  7  1  0
  7  8  1  0
  8  9  1  0
  9 10  1  0
 10 11  1  1
 10 12  1  0
 12 13  2  0
 12 14  1  0
  7 15  1  0
 15 16  2  0
 16 17  1  0
 17 18  2  0
 18 19  1  0
 19 20  2  0
 20 21  1  0
 21 22  1  0
 22 23  1  0
 23 24  2  0
 24 25  1  0
 25 26  2  0
 26 27  1  0
 27 28  2  0
  6 29  1  0
 29 30  2  0
 30  3  1  0
 28  7  1  0
 20 15  1  0
 28 23  1  0
M  CHG  2  11   1  14  -1
M  END
>  <shape_align_shape_tanimoto>  (3) 
0.52136369911339753

>  <shape_align_color_tanimoto>  (3) 
0.087320578759611384

>  <metric>  (3) 
combo

>  <metric_score>  (3) 
0.304

>  <template_pid>  (3) 
5ZO7

>  <template_shape_score>  (3) 
0.521

>  <template_color_score>  (3) 
0.087

>  <template_combo_score>  (3) 
0.304

$$$$
