6CJS_shape_pose
     RDKit          3D

 34 37  0  0  0  0  0  0  0  0999 V2000
    7.8133    5.5957   22.3460 C   0  0  0  0  0  0  0  0  0  0  0  0
    7.4391    6.4072   21.1510 C   0  0  0  0  0  0  0  0  0  0  0  0
    7.4875    7.8333   21.3783 N   0  0  0  0  0  0  0  0  0  0  0  0
    6.6503    8.4032   22.3969 C   0  0  0  0  0  0  0  0  0  0  0  0
    5.8757    7.6891   23.0957 O   0  0  0  0  0  0  0  0  0  0  0  0
    6.7391    9.8488   22.5841 C   0  0  0  0  0  0  0  0  0  0  0  0
    7.5060   10.7442   21.9308 N   0  0  0  0  0  0  0  0  0  0  0  0
    7.2884   11.9480   22.4015 O   0  0  0  0  0  0  0  0  0  0  0  0
    6.3898   11.8901   23.3609 C   0  0  0  0  0  0  0  0  0  0  0  0
    5.9003   13.0457   24.1156 C   0  0  0  0  0  0  0  0  0  0  0  0
    6.8415   13.7416   24.8566 C   0  0  0  0  0  0  0  0  0  0  0  0
    6.4422   14.8426   25.5905 C   0  0  0  0  0  0  0  0  0  0  0  0
    7.3934   15.6434   26.4126 C   0  0  0  0  0  0  0  0  0  0  0  0
    7.4643   15.0936   27.8188 C   0  0  0  0  0  0  0  0  0  0  0  0
    8.7881   15.6108   25.8236 C   0  0  0  0  0  0  0  0  0  0  0  0
    5.1303   15.2384   25.5829 C   0  0  0  0  0  0  0  0  0  0  0  0
    4.6500   16.3339   26.2938 O   0  0  0  0  0  0  0  0  0  0  0  0
    4.1777   14.5393   24.8368 C   0  0  0  0  0  0  0  0  0  0  0  0
    4.5670   13.4311   24.0953 C   0  0  0  0  0  0  0  0  0  0  0  0
    3.6674   12.6930   23.3323 O   0  0  0  0  0  0  0  0  0  0  0  0
    6.0089   10.5638   23.5129 C   0  0  0  0  0  0  0  0  0  0  0  0
    5.0326   10.1295   24.4829 C   0  0  0  0  0  0  0  0  0  0  0  0
    3.8390    9.5092   24.1572 C   0  0  0  0  0  0  0  0  0  0  0  0
    2.9514    9.1217   25.1675 C   0  0  0  0  0  0  0  0  0  0  0  0
    3.2770    9.3634   26.4865 C   0  0  0  0  0  0  0  0  0  0  0  0
    2.3935    8.9852   27.6233 C   0  0  0  0  0  0  0  0  0  0  0  0
    2.7465    7.6618   28.0306 N   0  0  0  0  0  0  0  0  0  0  0  0
    3.2470    6.8331   26.9777 C   0  0  0  0  0  0  0  0  0  0  0  0
    3.7021    5.5329   27.6416 C   0  0  0  0  0  0  0  0  0  0  0  0
    3.7077    5.6241   29.0293 O   0  0  0  0  0  0  0  0  0  0  0  0
    2.4763    5.8842   29.5862 C   0  0  0  0  0  0  0  0  0  0  0  0
    1.7357    6.9541   28.7726 C   0  0  0  0  0  0  0  0  0  0  0  0
    4.4779    9.9892   26.8420 C   0  0  0  0  0  0  0  0  0  0  0  0
    5.3362   10.3615   25.8260 C   0  0  0  0  0  0  0  0  0  0  0  0
  1  2  1  0
  2  3  1  0
  3  4  1  0
  4  5  2  0
  4  6  1  0
  6  7  2  0
  7  8  1  0
  8  9  1  0
  9 10  1  0
 10 11  2  0
 11 12  1  0
 12 13  1  0
 13 14  1  0
 13 15  1  0
 12 16  2  0
 16 17  1  0
 16 18  1  0
 18 19  2  0
 19 20  1  0
  9 21  2  0
 21 22  1  0
 22 23  2  0
 23 24  1  0
 24 25  2  0
 25 26  1  0
 26 27  1  0
 27 28  1  0
 28 29  1  0
 29 30  1  0
 30 31  1  0
 31 32  1  0
 25 33  1  0
 33 34  2  0
 21  6  1  0
 34 22  1  0
 19 10  1  0
 32 27  1  0
M  CHG  1  27   1
M  END
>  <shape_align_shape_tanimoto>  (1) 
0.58147755594857053

>  <shape_align_color_tanimoto>  (1) 
0.074665381594505198

>  <metric>  (1) 
shape

>  <metric_score>  (1) 
0.581

>  <template_pid>  (1) 
6CJS

>  <template_shape_score>  (1) 
0.581

>  <template_color_score>  (1) 
0.075

>  <template_combo_score>  (1) 
0.328

$$$$
6CJS_color_pose
     RDKit          3D

 34 37  0  0  0  0  0  0  0  0999 V2000
    6.7127    6.8985   21.5190 C   0  0  0  0  0  0  0  0  0  0  0  0
    7.1185    7.0092   22.9684 C   0  0  0  0  0  0  0  0  0  0  0  0
    6.7765    8.3571   23.4161 N   0  0  0  0  0  0  0  0  0  0  0  0
    7.3668    9.4596   22.7701 C   0  0  0  0  0  0  0  0  0  0  0  0
    8.1761    9.2073   21.8288 O   0  0  0  0  0  0  0  0  0  0  0  0
    7.1378   10.8522   23.0803 C   0  0  0  0  0  0  0  0  0  0  0  0
    7.8350   11.8576   22.5065 N   0  0  0  0  0  0  0  0  0  0  0  0
    7.4076   13.0014   22.9762 O   0  0  0  0  0  0  0  0  0  0  0  0
    6.4464   12.8328   23.8491 C   0  0  0  0  0  0  0  0  0  0  0  0
    5.7701   13.9156   24.5466 C   0  0  0  0  0  0  0  0  0  0  0  0
    4.4136   14.1359   24.4967 C   0  0  0  0  0  0  0  0  0  0  0  0
    3.7877   15.1709   25.1559 C   0  0  0  0  0  0  0  0  0  0  0  0
    2.3229   15.4127   25.1013 C   0  0  0  0  0  0  0  0  0  0  0  0
    1.5727   14.8112   26.2458 C   0  0  0  0  0  0  0  0  0  0  0  0
    1.7455   14.8165   23.8164 C   0  0  0  0  0  0  0  0  0  0  0  0
    4.5791   16.0229   25.9009 C   0  0  0  0  0  0  0  0  0  0  0  0
    4.0122   17.0839   26.5877 O   0  0  0  0  0  0  0  0  0  0  0  0
    5.9516   15.8583   25.9938 C   0  0  0  0  0  0  0  0  0  0  0  0
    6.5502   14.7924   25.3085 C   0  0  0  0  0  0  0  0  0  0  0  0
    7.9253   14.5760   25.3651 O   0  0  0  0  0  0  0  0  0  0  0  0
    6.2563   11.4694   23.9310 C   0  0  0  0  0  0  0  0  0  0  0  0
    5.2607   10.8360   24.7783 C   0  0  0  0  0  0  0  0  0  0  0  0
    5.4198   10.6049   26.1254 C   0  0  0  0  0  0  0  0  0  0  0  0
    4.3766   10.0092   26.8063 C   0  0  0  0  0  0  0  0  0  0  0  0
    3.1897    9.6452   26.1673 C   0  0  0  0  0  0  0  0  0  0  0  0
    2.0822    9.0167   26.8805 C   0  0  0  0  0  0  0  0  0  0  0  0
    2.0786    7.5877   26.9467 N   0  0  0  0  0  0  0  0  0  0  0  0
    2.0066    6.9036   25.6876 C   0  0  0  0  0  0  0  0  0  0  0  0
    3.3057    6.5890   25.0368 C   0  0  0  0  0  0  0  0  0  0  0  0
    4.4348    6.9578   25.7286 O   0  0  0  0  0  0  0  0  0  0  0  0
    4.3874    6.6962   27.0717 C   0  0  0  0  0  0  0  0  0  0  0  0
    3.0949    7.0067   27.7522 C   0  0  0  0  0  0  0  0  0  0  0  0
    3.0282    9.8791   24.8032 C   0  0  0  0  0  0  0  0  0  0  0  0
    4.0693   10.4708   24.1363 C   0  0  0  0  0  0  0  0  0  0  0  0
  1  2  1  0
  2  3  1  0
  3  4  1  0
  4  5  2  0
  4  6  1  0
  6  7  2  0
  7  8  1  0
  8  9  1  0
  9 10  1  0
 10 11  2  0
 11 12  1  0
 12 13  1  0
 13 14  1  0
 13 15  1  0
 12 16  2  0
 16 17  1  0
 16 18  1  0
 18 19  2  0
 19 20  1  0
  9 21  2  0
 21 22  1  0
 22 23  2  0
 23 24  1  0
 24 25  2  0
 25 26  1  0
 26 27  1  0
 27 28  1  0
 28 29  1  0
 29 30  1  0
 30 31  1  0
 31 32  1  0
 25 33  1  0
 33 34  2  0
 21  6  1  0
 34 22  1  0
 19 10  1  0
 32 27  1  0
M  CHG  1  27   1
M  END
>  <shape_align_shape_tanimoto>  (2) 
0.5699204979883975

>  <shape_align_color_tanimoto>  (2) 
0.13178888882754275

>  <metric>  (2) 
color

>  <metric_score>  (2) 
0.132

>  <template_pid>  (2) 
6CJS

>  <template_shape_score>  (2) 
0.570

>  <template_color_score>  (2) 
0.132

>  <template_combo_score>  (2) 
0.351

$$$$
6CJS_combo_pose
     RDKit          3D

 34 37  0  0  0  0  0  0  0  0999 V2000
    6.7127    6.8985   21.5190 C   0  0  0  0  0  0  0  0  0  0  0  0
    7.1185    7.0092   22.9684 C   0  0  0  0  0  0  0  0  0  0  0  0
    6.7765    8.3571   23.4161 N   0  0  0  0  0  0  0  0  0  0  0  0
    7.3668    9.4596   22.7701 C   0  0  0  0  0  0  0  0  0  0  0  0
    8.1761    9.2073   21.8288 O   0  0  0  0  0  0  0  0  0  0  0  0
    7.1378   10.8522   23.0803 C   0  0  0  0  0  0  0  0  0  0  0  0
    7.8350   11.8576   22.5065 N   0  0  0  0  0  0  0  0  0  0  0  0
    7.4076   13.0014   22.9762 O   0  0  0  0  0  0  0  0  0  0  0  0
    6.4464   12.8328   23.8491 C   0  0  0  0  0  0  0  0  0  0  0  0
    5.7701   13.9156   24.5466 C   0  0  0  0  0  0  0  0  0  0  0  0
    4.4136   14.1359   24.4967 C   0  0  0  0  0  0  0  0  0  0  0  0
    3.7877   15.1709   25.1559 C   0  0  0  0  0  0  0  0  0  0  0  0
    2.3229   15.4127   25.1013 C   0  0  0  0  0  0  0  0  0  0  0  0
    1.5727   14.8112   26.2458 C   0  0  0  0  0  0  0  0  0  0  0  0
    1.7455   14.8165   23.8164 C   0  0  0  0  0  0  0  0  0  0  0  0
    4.5791   16.0229   25.9009 C   0  0  0  0  0  0  0  0  0  0  0  0
    4.0122   17.0839   26.5877 O   0  0  0  0  0  0  0  0  0  0  0  0
    5.9516   15.8583   25.9938 C   0  0  0  0  0  0  0  0  0  0  0  0
    6.5502   14.7924   25.3085 C   0  0  0  0  0  0  0  0  0  0  0  0
    7.9253   14.5760   25.3651 O   0  0  0  0  0  0  0  0  0  0  0  0
    6.2563   11.4694   23.9310 C   0  0  0  0  0  0  0  0  0  0  0  0
    5.2607   10.8360   24.7783 C   0  0  0  0  0  0  0  0  0  0  0  0
    5.4198   10.6049   26.1254 C   0  0  0  0  0  0  0  0  0  0  0  0
    4.3766   10.0092   26.8063 C   0  0  0  0  0  0  0  0  0  0  0  0
    3.1897    9.6452   26.1673 C   0  0  0  0  0  0  0  0  0  0  0  0
    2.0822    9.0167   26.8805 C   0  0  0  0  0  0  0  0  0  0  0  0
    2.0786    7.5877   26.9467 N   0  0  0  0  0  0  0  0  0  0  0  0
    2.0066    6.9036   25.6876 C   0  0  0  0  0  0  0  0  0  0  0  0
    3.3057    6.5890   25.0368 C   0  0  0  0  0  0  0  0  0  0  0  0
    4.4348    6.9578   25.7286 O   0  0  0  0  0  0  0  0  0  0  0  0
    4.3874    6.6962   27.0717 C   0  0  0  0  0  0  0  0  0  0  0  0
    3.0949    7.0067   27.7522 C   0  0  0  0  0  0  0  0  0  0  0  0
    3.0282    9.8791   24.8032 C   0  0  0  0  0  0  0  0  0  0  0  0
    4.0693   10.4708   24.1363 C   0  0  0  0  0  0  0  0  0  0  0  0
  1  2  1  0
  2  3  1  0
  3  4  1  0
  4  5  2  0
  4  6  1  0
  6  7  2  0
  7  8  1  0
  8  9  1  0
  9 10  1  0
 10 11  2  0
 11 12  1  0
 12 13  1  0
 13 14  1  0
 13 15  1  0
 12 16  2  0
 16 17  1  0
 16 18  1  0
 18 19  2  0
 19 20  1  0
  9 21  2  0
 21 22  1  0
 22 23  2  0
 23 24  1  0
 24 25  2  0
 25 26  1  0
 26 27  1  0
 27 28  1  0
 28 29  1  0
 29 30  1  0
 30 31  1  0
 31 32  1  0
 25 33  1  0
 33 34  2  0
 21  6  1  0
 34 22  1  0
 19 10  1  0
 32 27  1  0
M  CHG  1  27   1
M  END
>  <shape_align_shape_tanimoto>  (3) 
0.5699204979883975

>  <shape_align_color_tanimoto>  (3) 
0.13178888882754275

>  <metric>  (3) 
combo

>  <metric_score>  (3) 
0.351

>  <template_pid>  (3) 
6CJS

>  <template_shape_score>  (3) 
0.570

>  <template_color_score>  (3) 
0.132

>  <template_combo_score>  (3) 
0.351

$$$$
