1B7H_shape_pose
     RDKit          3D

 27 26  0  0  0  0  0  0  0  0999 V2000
   77.3630    9.9579   32.7547 C   0  0  0  0  0  0  0  0  0  0  0  0
   77.1177    8.5183   33.2172 C   0  0  0  0  0  0  0  0  0  0  0  0
   77.9650    7.6551   32.2720 C   0  0  0  0  0  0  0  0  0  0  0  0
   77.8456    6.2092   32.5790 C   0  0  0  0  0  0  0  0  0  0  0  0
   78.6386    5.2721   31.7331 C   0  0  2  0  0  0  0  0  0  0  0  0
   80.0412    5.5729   31.8522 N   0  0  0  0  0  0  0  0  0  0  0  0
   80.9518    4.7626   32.5653 C   0  0  0  0  0  0  0  0  0  0  0  0
   80.4399    3.7097   33.1067 O   0  0  0  0  0  0  0  0  0  0  0  0
   82.3680    4.9682   32.7633 C   0  0  1  0  0  0  0  0  0  0  0  0
   82.8000    3.8637   33.6576 N   0  0  0  0  0  0  0  0  0  0  0  0
   83.3056    4.9581   31.6407 C   0  0  0  0  0  0  0  0  0  0  0  0
   83.1512    5.9514   30.5497 C   0  0  0  0  0  0  0  0  0  0  0  0
   84.2449    5.7753   29.4750 C   0  0  0  0  0  0  0  0  0  0  0  0
   84.0150    6.8217   28.4070 C   0  0  0  0  0  0  0  0  0  0  0  0
   85.0007    6.7368   27.3493 N   0  0  0  0  0  0  0  0  0  0  0  0
   78.2020    5.1172   30.3451 C   0  0  0  0  0  0  0  0  0  0  0  0
   76.9572    4.9291   30.1435 O   0  0  0  0  0  0  0  0  0  0  0  0
   79.0219    5.1477   29.1955 N   0  0  0  0  0  0  0  0  0  0  0  0
   78.4818    4.9621   27.8921 C   0  0  1  0  0  0  0  0  0  0  0  0
   79.0661    5.6386   26.7300 C   0  0  0  0  0  0  0  0  0  0  0  0
   79.1333    7.0634   26.4992 C   0  0  0  0  0  0  0  0  0  0  0  0
   79.8081    8.0282   27.3543 C   0  0  0  0  0  0  0  0  0  0  0  0
   79.3417    8.3166   28.7252 C   0  0  0  0  0  0  0  0  0  0  0  0
   77.9566    8.7999   28.7374 N   0  0  0  0  0  0  0  0  0  0  0  0
   78.6861    3.4466   27.6422 C   0  0  0  0  0  0  0  0  0  0  0  0
   77.9602    2.6538   28.3304 O   0  0  0  0  0  0  0  0  0  0  0  0
   79.6086    3.0193   26.7214 O   0  0  0  0  0  0  0  0  0  0  0  0
  1  2  1  0
  2  3  1  0
  3  4  1  0
  5  4  1  6
  5  6  1  0
  6  7  1  0
  7  8  2  0
  7  9  1  0
  9 10  1  1
  9 11  1  0
 11 12  1  0
 12 13  1  0
 13 14  1  0
 14 15  1  0
  5 16  1  0
 16 17  2  0
 16 18  1  0
 18 19  1  0
 19 20  1  6
 20 21  1  0
 21 22  1  0
 22 23  1  0
 23 24  1  0
 19 25  1  0
 25 26  2  0
 25 27  1  0
M  CHG  4  10   1  15   1  24   1  27  -1
M  END
>  <shape_align_shape_tanimoto>  (1) 
0.64786342967394539

>  <shape_align_color_tanimoto>  (1) 
0.06565753065557027

>  <metric>  (1) 
shape

>  <metric_score>  (1) 
0.648

>  <template_pid>  (1) 
1B7H

>  <template_shape_score>  (1) 
0.648

>  <template_color_score>  (1) 
0.066

>  <template_combo_score>  (1) 
0.357

$$$$
1B7H_color_pose
     RDKit          3D

 27 26  0  0  0  0  0  0  0  0999 V2000
   78.3343    5.7950   36.3982 C   0  0  0  0  0  0  0  0  0  0  0  0
   77.9003    5.4754   34.9743 C   0  0  0  0  0  0  0  0  0  0  0  0
   78.1245    6.6556   34.0772 C   0  0  0  0  0  0  0  0  0  0  0  0
   77.7414    6.4410   32.6543 C   0  0  0  0  0  0  0  0  0  0  0  0
   78.5457    5.3100   32.0277 C   0  0  2  0  0  0  0  0  0  0  0  0
   79.9520    5.5886   32.0501 N   0  0  0  0  0  0  0  0  0  0  0  0
   80.9261    4.8577   32.7651 C   0  0  0  0  0  0  0  0  0  0  0  0
   80.7125    3.8661   33.4847 O   0  0  0  0  0  0  0  0  0  0  0  0
   82.3535    5.3157   32.6503 C   0  0  1  0  0  0  0  0  0  0  0  0
   83.1985    4.5740   33.5595 N   0  0  0  0  0  0  0  0  0  0  0  0
   82.7925    5.1498   31.2123 C   0  0  0  0  0  0  0  0  0  0  0  0
   84.1908    5.5714   30.9280 C   0  0  0  0  0  0  0  0  0  0  0  0
   84.4730    5.3169   29.4626 C   0  0  0  0  0  0  0  0  0  0  0  0
   83.5685    6.0549   28.5271 C   0  0  0  0  0  0  0  0  0  0  0  0
   83.6833    7.4712   28.7217 N   0  0  0  0  0  0  0  0  0  0  0  0
   78.0488    5.0861   30.6363 C   0  0  0  0  0  0  0  0  0  0  0  0
   76.8395    4.7706   30.4051 O   0  0  0  0  0  0  0  0  0  0  0  0
   78.9263    5.2254   29.5172 N   0  0  0  0  0  0  0  0  0  0  0  0
   78.3465    4.9984   28.2075 C   0  0  1  0  0  0  0  0  0  0  0  0
   78.2264    6.3935   27.5512 C   0  0  0  0  0  0  0  0  0  0  0  0
   79.5812    7.0542   27.4242 C   0  0  0  0  0  0  0  0  0  0  0  0
   79.5061    8.4305   26.8050 C   0  0  0  0  0  0  0  0  0  0  0  0
   78.6516    9.3449   27.6419 C   0  0  0  0  0  0  0  0  0  0  0  0
   78.5516   10.6866   27.0901 N   0  0  0  0  0  0  0  0  0  0  0  0
   79.1954    4.1929   27.3094 C   0  0  0  0  0  0  0  0  0  0  0  0
   80.3646    3.8104   27.6028 O   0  0  0  0  0  0  0  0  0  0  0  0
   78.6719    3.8405   26.0760 O   0  0  0  0  0  0  0  0  0  0  0  0
  1  2  1  0
  2  3  1  0
  3  4  1  0
  5  4  1  6
  5  6  1  0
  6  7  1  0
  7  8  2  0
  7  9  1  0
  9 10  1  1
  9 11  1  0
 11 12  1  0
 12 13  1  0
 13 14  1  0
 14 15  1  0
  5 16  1  0
 16 17  2  0
 16 18  1  0
 18 19  1  0
 19 20  1  6
 20 21  1  0
 21 22  1  0
 22 23  1  0
 23 24  1  0
 19 25  1  0
 25 26  2  0
 25 27  1  0
M  CHG  4  10   1  15   1  24   1  27  -1
M  END
>  <shape_align_shape_tanimoto>  (2) 
0.62798691907241322

>  <shape_align_color_tanimoto>  (2) 
0.10761877011450342

>  <metric>  (2) 
color

>  <metric_score>  (2) 
0.108

>  <template_pid>  (2) 
1B7H

>  <template_shape_score>  (2) 
0.628

>  <template_color_score>  (2) 
0.108

>  <template_combo_score>  (2) 
0.368

$$$$
1B7H_combo_pose
     RDKit          3D

 27 26  0  0  0  0  0  0  0  0999 V2000
   78.3343    5.7950   36.3982 C   0  0  0  0  0  0  0  0  0  0  0  0
   77.9003    5.4754   34.9743 C   0  0  0  0  0  0  0  0  0  0  0  0
   78.1245    6.6556   34.0772 C   0  0  0  0  0  0  0  0  0  0  0  0
   77.7414    6.4410   32.6543 C   0  0  0  0  0  0  0  0  0  0  0  0
   78.5457    5.3100   32.0277 C   0  0  2  0  0  0  0  0  0  0  0  0
   79.9520    5.5886   32.0501 N   0  0  0  0  0  0  0  0  0  0  0  0
   80.9261    4.8577   32.7651 C   0  0  0  0  0  0  0  0  0  0  0  0
   80.7125    3.8661   33.4847 O   0  0  0  0  0  0  0  0  0  0  0  0
   82.3535    5.3157   32.6503 C   0  0  1  0  0  0  0  0  0  0  0  0
   83.1985    4.5740   33.5595 N   0  0  0  0  0  0  0  0  0  0  0  0
   82.7925    5.1498   31.2123 C   0  0  0  0  0  0  0  0  0  0  0  0
   84.1908    5.5714   30.9280 C   0  0  0  0  0  0  0  0  0  0  0  0
   84.4730    5.3169   29.4626 C   0  0  0  0  0  0  0  0  0  0  0  0
   83.5685    6.0549   28.5271 C   0  0  0  0  0  0  0  0  0  0  0  0
   83.6833    7.4712   28.7217 N   0  0  0  0  0  0  0  0  0  0  0  0
   78.0488    5.0861   30.6363 C   0  0  0  0  0  0  0  0  0  0  0  0
   76.8395    4.7706   30.4051 O   0  0  0  0  0  0  0  0  0  0  0  0
   78.9263    5.2254   29.5172 N   0  0  0  0  0  0  0  0  0  0  0  0
   78.3465    4.9984   28.2075 C   0  0  1  0  0  0  0  0  0  0  0  0
   78.2264    6.3935   27.5512 C   0  0  0  0  0  0  0  0  0  0  0  0
   79.5812    7.0542   27.4242 C   0  0  0  0  0  0  0  0  0  0  0  0
   79.5061    8.4305   26.8050 C   0  0  0  0  0  0  0  0  0  0  0  0
   78.6516    9.3449   27.6419 C   0  0  0  0  0  0  0  0  0  0  0  0
   78.5516   10.6866   27.0901 N   0  0  0  0  0  0  0  0  0  0  0  0
   79.1954    4.1929   27.3094 C   0  0  0  0  0  0  0  0  0  0  0  0
   80.3646    3.8104   27.6028 O   0  0  0  0  0  0  0  0  0  0  0  0
   78.6719    3.8405   26.0760 O   0  0  0  0  0  0  0  0  0  0  0  0
  1  2  1  0
  2  3  1  0
  3  4  1  0
  5  4  1  6
  5  6  1  0
  6  7  1  0
  7  8  2  0
  7  9  1  0
  9 10  1  1
  9 11  1  0
 11 12  1  0
 12 13  1  0
 13 14  1  0
 14 15  1  0
  5 16  1  0
 16 17  2  0
 16 18  1  0
 18 19  1  0
 19 20  1  6
 20 21  1  0
 21 22  1  0
 22 23  1  0
 23 24  1  0
 19 25  1  0
 25 26  2  0
 25 27  1  0
M  CHG  4  10   1  15   1  24   1  27  -1
M  END
>  <shape_align_shape_tanimoto>  (3) 
0.62798691907241322

>  <shape_align_color_tanimoto>  (3) 
0.10761877011450342

>  <metric>  (3) 
combo

>  <metric_score>  (3) 
0.368

>  <template_pid>  (3) 
1B7H

>  <template_shape_score>  (3) 
0.628

>  <template_color_score>  (3) 
0.108

>  <template_combo_score>  (3) 
0.368

$$$$
