4B0G_shape_pose
     RDKit          3D

 29 33  0  0  0  0  0  0  0  0999 V2000
  -14.9226   11.5813  -14.9180 C   0  0  0  0  0  0  0  0  0  0  0  0
  -13.6226   12.3070  -15.0836 C   0  0  0  0  0  0  0  0  0  0  0  0
  -12.9707   12.5961  -16.2656 C   0  0  0  0  0  0  0  0  0  0  0  0
  -11.8181   13.2730  -15.9202 C   0  0  0  0  0  0  0  0  0  0  0  0
  -10.7459   13.8220  -16.7891 C   0  0  0  0  0  0  0  0  0  0  0  0
  -10.9955   15.1937  -17.1953 N   0  0  0  0  0  0  0  0  0  0  0  0
  -12.3911   15.4891  -17.0117 C   0  0  0  0  0  0  0  0  0  0  0  0
  -12.8123   16.7988  -17.6295 C   0  0  0  0  0  0  0  0  0  0  0  0
  -12.2011   16.9701  -18.9557 N   0  0  0  0  0  0  0  0  0  0  0  0
  -12.9461   17.3059  -20.1019 C   0  0  0  0  0  0  0  0  0  0  0  0
  -13.1483   18.6283  -20.4478 C   0  0  0  0  0  0  0  0  0  0  0  0
  -12.4440   20.0548  -19.4134 Br  0  0  0  0  0  0  0  0  0  0  0  0
  -13.8993   18.8697  -21.6007 C   0  0  0  0  0  0  0  0  0  0  0  0
  -14.3998   17.8514  -22.3357 N   0  0  0  0  0  0  0  0  0  0  0  0
  -14.1967   16.5651  -21.9895 C   0  0  0  0  0  0  0  0  0  0  0  0
  -14.5555   15.3645  -22.5032 N   0  0  0  0  0  0  0  0  0  0  0  0
  -14.0705   14.3709  -21.7349 C   0  0  0  0  0  0  0  0  0  0  0  0
  -14.2806   12.9579  -22.0156 C   0  0  0  0  0  0  0  0  0  0  0  0
  -14.9978   12.4963  -23.0973 C   0  0  0  0  0  0  0  0  0  0  0  0
  -14.9855   11.1427  -23.0401 N   0  0  0  0  0  0  0  0  0  0  0  0
  -14.2806   10.7614  -21.9533 C   0  0  0  0  0  0  0  0  0  0  0  0
  -13.8590   11.8814  -21.3415 N   0  0  0  0  0  0  0  0  0  0  0  0
  -13.0730   11.8873  -20.1419 C   0  0  0  0  0  0  0  0  0  0  0  0
  -13.3977   14.9512  -20.7247 N   0  0  0  0  0  0  0  0  0  0  0  0
  -13.4612   16.2727  -20.8588 C   0  0  0  0  0  0  0  0  0  0  0  0
  -10.7446   16.7677  -19.0189 C   0  0  0  0  0  0  0  0  0  0  0  0
  -10.5317   15.3462  -18.5330 C   0  0  0  0  0  0  0  0  0  0  0  0
  -11.8103   13.3699  -14.5618 N   0  0  0  0  0  0  0  0  0  0  0  0
  -12.8924   12.7876  -14.1039 O   0  0  0  0  0  0  0  0  0  0  0  0
  1  2  1  0
  2  3  2  0
  3  4  1  0
  4  5  1  0
  5  6  1  0
  6  7  1  0
  7  8  1  0
  8  9  1  0
  9 10  1  0
 10 11  2  0
 11 12  1  0
 11 13  1  0
 13 14  2  0
 14 15  1  0
 15 16  1  0
 16 17  1  0
 17 18  1  0
 18 19  2  0
 19 20  1  0
 20 21  2  0
 21 22  1  0
 22 23  1  0
 17 24  2  0
 24 25  1  0
  9 26  1  0
 26 27  1  0
  4 28  2  0
 28 29  1  0
 29  2  1  0
 27  6  1  0
 25 10  1  0
 25 15  2  0
 22 18  1  0
M  CHG  1   6   1
M  END
>  <shape_align_shape_tanimoto>  (1) 
0.56161674836239095

>  <shape_align_color_tanimoto>  (1) 
0.037454268553199589

>  <metric>  (1) 
shape

>  <metric_score>  (1) 
0.562

>  <template_pid>  (1) 
4B0G

>  <template_shape_score>  (1) 
0.562

>  <template_color_score>  (1) 
0.037

>  <template_combo_score>  (1) 
0.300

$$$$
4B0G_color_pose
     RDKit          3D

 29 33  0  0  0  0  0  0  0  0999 V2000
  -15.7314   20.0347  -24.0654 C   0  0  0  0  0  0  0  0  0  0  0  0
  -15.5929   18.7724  -23.3090 C   0  0  0  0  0  0  0  0  0  0  0  0
  -14.4004   18.1005  -23.1640 C   0  0  0  0  0  0  0  0  0  0  0  0
  -14.6392   16.9740  -22.4055 C   0  0  0  0  0  0  0  0  0  0  0  0
  -13.7499   15.9056  -21.9434 C   0  0  0  0  0  0  0  0  0  0  0  0
  -13.1450   16.1337  -20.6515 N   0  0  0  0  0  0  0  0  0  0  0  0
  -14.1889   16.1174  -19.6561 C   0  0  0  0  0  0  0  0  0  0  0  0
  -13.6943   16.4404  -18.2589 C   0  0  0  0  0  0  0  0  0  0  0  0
  -12.2490   16.7110  -18.4525 N   0  0  0  0  0  0  0  0  0  0  0  0
  -11.2675   15.9012  -17.8646 C   0  0  0  0  0  0  0  0  0  0  0  0
   -9.9037   16.0527  -18.0266 C   0  0  0  0  0  0  0  0  0  0  0  0
   -9.1345   17.3787  -19.1574 Br  0  0  0  0  0  0  0  0  0  0  0  0
   -8.9675   15.2212  -17.3940 C   0  0  0  0  0  0  0  0  0  0  0  0
   -9.3674   14.2233  -16.5899 N   0  0  0  0  0  0  0  0  0  0  0  0
  -10.6804   14.0376  -16.4039 C   0  0  0  0  0  0  0  0  0  0  0  0
  -11.3030   13.1132  -15.6566 N   0  0  0  0  0  0  0  0  0  0  0  0
  -12.6091   13.2846  -15.7571 C   0  0  0  0  0  0  0  0  0  0  0  0
  -13.7266   12.5529  -15.1492 C   0  0  0  0  0  0  0  0  0  0  0  0
  -15.0842   12.8217  -15.3249 C   0  0  0  0  0  0  0  0  0  0  0  0
  -15.8242   11.9532  -14.6189 N   0  0  0  0  0  0  0  0  0  0  0  0
  -14.9562   11.1398  -13.9999 C   0  0  0  0  0  0  0  0  0  0  0  0
  -13.6744   11.4936  -14.3139 N   0  0  0  0  0  0  0  0  0  0  0  0
  -12.5004   10.8373  -13.8273 C   0  0  0  0  0  0  0  0  0  0  0  0
  -12.7928   14.3299  -16.5783 N   0  0  0  0  0  0  0  0  0  0  0  0
  -11.6457   14.8494  -17.0193 C   0  0  0  0  0  0  0  0  0  0  0  0
  -12.0520   17.8717  -19.2995 C   0  0  0  0  0  0  0  0  0  0  0  0
  -12.3881   17.3558  -20.7121 C   0  0  0  0  0  0  0  0  0  0  0  0
  -15.9732   17.0101  -22.1208 N   0  0  0  0  0  0  0  0  0  0  0  0
  -16.4773   18.0622  -22.6617 O   0  0  0  0  0  0  0  0  0  0  0  0
  1  2  1  0
  2  3  2  0
  3  4  1  0
  4  5  1  0
  5  6  1  0
  6  7  1  0
  7  8  1  0
  8  9  1  0
  9 10  1  0
 10 11  2  0
 11 12  1  0
 11 13  1  0
 13 14  2  0
 14 15  1  0
 15 16  1  0
 16 17  1  0
 17 18  1  0
 18 19  2  0
 19 20  1  0
 20 21  2  0
 21 22  1  0
 22 23  1  0
 17 24  2  0
 24 25  1  0
  9 26  1  0
 26 27  1  0
  4 28  2  0
 28 29  1  0
 29  2  1  0
 27  6  1  0
 25 10  1  0
 25 15  2  0
 22 18  1  0
M  CHG  1   6   1
M  END
>  <shape_align_shape_tanimoto>  (2) 
0.54725391168511917

>  <shape_align_color_tanimoto>  (2) 
0.10973166929720311

>  <metric>  (2) 
color

>  <metric_score>  (2) 
0.110

>  <template_pid>  (2) 
4B0G

>  <template_shape_score>  (2) 
0.547

>  <template_color_score>  (2) 
0.110

>  <template_combo_score>  (2) 
0.328

$$$$
4B0G_combo_pose
     RDKit          3D

 29 33  0  0  0  0  0  0  0  0999 V2000
  -15.7314   20.0347  -24.0654 C   0  0  0  0  0  0  0  0  0  0  0  0
  -15.5929   18.7724  -23.3090 C   0  0  0  0  0  0  0  0  0  0  0  0
  -14.4004   18.1005  -23.1640 C   0  0  0  0  0  0  0  0  0  0  0  0
  -14.6392   16.9740  -22.4055 C   0  0  0  0  0  0  0  0  0  0  0  0
  -13.7499   15.9056  -21.9434 C   0  0  0  0  0  0  0  0  0  0  0  0
  -13.1450   16.1337  -20.6515 N   0  0  0  0  0  0  0  0  0  0  0  0
  -14.1889   16.1174  -19.6561 C   0  0  0  0  0  0  0  0  0  0  0  0
  -13.6943   16.4404  -18.2589 C   0  0  0  0  0  0  0  0  0  0  0  0
  -12.2490   16.7110  -18.4525 N   0  0  0  0  0  0  0  0  0  0  0  0
  -11.2675   15.9012  -17.8646 C   0  0  0  0  0  0  0  0  0  0  0  0
   -9.9037   16.0527  -18.0266 C   0  0  0  0  0  0  0  0  0  0  0  0
   -9.1345   17.3787  -19.1574 Br  0  0  0  0  0  0  0  0  0  0  0  0
   -8.9675   15.2212  -17.3940 C   0  0  0  0  0  0  0  0  0  0  0  0
   -9.3674   14.2233  -16.5899 N   0  0  0  0  0  0  0  0  0  0  0  0
  -10.6804   14.0376  -16.4039 C   0  0  0  0  0  0  0  0  0  0  0  0
  -11.3030   13.1132  -15.6566 N   0  0  0  0  0  0  0  0  0  0  0  0
  -12.6091   13.2846  -15.7571 C   0  0  0  0  0  0  0  0  0  0  0  0
  -13.7266   12.5529  -15.1492 C   0  0  0  0  0  0  0  0  0  0  0  0
  -15.0842   12.8217  -15.3249 C   0  0  0  0  0  0  0  0  0  0  0  0
  -15.8242   11.9532  -14.6189 N   0  0  0  0  0  0  0  0  0  0  0  0
  -14.9562   11.1398  -13.9999 C   0  0  0  0  0  0  0  0  0  0  0  0
  -13.6744   11.4936  -14.3139 N   0  0  0  0  0  0  0  0  0  0  0  0
  -12.5004   10.8373  -13.8273 C   0  0  0  0  0  0  0  0  0  0  0  0
  -12.7928   14.3299  -16.5783 N   0  0  0  0  0  0  0  0  0  0  0  0
  -11.6457   14.8494  -17.0193 C   0  0  0  0  0  0  0  0  0  0  0  0
  -12.0520   17.8717  -19.2995 C   0  0  0  0  0  0  0  0  0  0  0  0
  -12.3881   17.3558  -20.7121 C   0  0  0  0  0  0  0  0  0  0  0  0
  -15.9732   17.0101  -22.1208 N   0  0  0  0  0  0  0  0  0  0  0  0
  -16.4773   18.0622  -22.6617 O   0  0  0  0  0  0  0  0  0  0  0  0
  1  2  1  0
  2  3  2  0
  3  4  1  0
  4  5  1  0
  5  6  1  0
  6  7  1  0
  7  8  1  0
  8  9  1  0
  9 10  1  0
 10 11  2  0
 11 12  1  0
 11 13  1  0
 13 14  2  0
 14 15  1  0
 15 16  1  0
 16 17  1  0
 17 18  1  0
 18 19  2  0
 19 20  1  0
 20 21  2  0
 21 22  1  0
 22 23  1  0
 17 24  2  0
 24 25  1  0
  9 26  1  0
 26 27  1  0
  4 28  2  0
 28 29  1  0
 29  2  1  0
 27  6  1  0
 25 10  1  0
 25 15  2  0
 22 18  1  0
M  CHG  1   6   1
M  END
>  <shape_align_shape_tanimoto>  (3) 
0.54725391168511917

>  <shape_align_color_tanimoto>  (3) 
0.10973166929720311

>  <metric>  (3) 
combo

>  <metric_score>  (3) 
0.328

>  <template_pid>  (3) 
4B0G

>  <template_shape_score>  (3) 
0.547

>  <template_color_score>  (3) 
0.110

>  <template_combo_score>  (3) 
0.328

$$$$
