1D4P_shape_pose
     RDKit          3D

 27 30  0  0  0  0  0  0  0  0999 V2000
   10.3326   -9.7601   24.9716 N   0  0  0  0  0  0  0  0  0  0  0  0
   10.4544   -9.4592   23.5538 C   0  0  0  0  0  0  0  0  0  0  0  0
    9.7091   -8.5207   23.1157 N   0  0  0  0  0  0  0  0  0  0  0  0
   11.4375  -10.2216   22.7945 C   0  0  0  0  0  0  0  0  0  0  0  0
   11.3145  -11.6046   22.8092 C   0  0  0  0  0  0  0  0  0  0  0  0
   12.2227  -12.4402   22.1425 C   0  0  0  0  0  0  0  0  0  0  0  0
   13.2451  -11.8030   21.4723 C   0  0  0  0  0  0  0  0  0  0  0  0
   14.2668  -12.3349   20.7656 N   0  0  0  0  0  0  0  0  0  0  0  0
   15.0655  -11.3376   20.2843 C   0  0  0  0  0  0  0  0  0  0  0  0
   16.2823  -11.6619   19.5106 C   0  0  0  0  0  0  0  0  0  0  0  0
   16.2459  -11.9893   18.2902 O   0  0  0  0  0  0  0  0  0  0  0  0
   17.5033  -11.5840   20.2459 N   0  0  0  0  0  0  0  0  0  0  0  0
   17.5246  -11.1488   21.6695 C   0  0  0  0  0  0  0  0  0  0  0  0
   17.5718  -12.4453   22.5232 C   0  0  0  0  0  0  0  0  0  0  0  0
   18.3437  -13.4759   21.7076 C   0  0  0  0  0  0  0  0  0  0  0  0
   18.8732  -14.6266   22.4875 C   0  0  0  0  0  0  0  0  0  0  0  0
   19.7895  -14.3036   23.5991 C   0  0  0  0  0  0  0  0  0  0  0  0
   21.1858  -14.2190   23.4579 C   0  0  0  0  0  0  0  0  0  0  0  0
   21.8845  -13.9216   24.6169 C   0  0  0  0  0  0  0  0  0  0  0  0
   21.3107  -13.7100   25.8515 C   0  0  0  0  0  0  0  0  0  0  0  0
   19.9256  -13.7934   25.9857 C   0  0  0  0  0  0  0  0  0  0  0  0
   19.1868  -14.0896   24.8532 C   0  0  0  0  0  0  0  0  0  0  0  0
   19.4321  -12.7808   20.9258 C   0  0  0  0  0  0  0  0  0  0  0  0
   18.8128  -11.9893   19.7346 C   0  0  0  0  0  0  0  0  0  0  0  0
   14.5640  -10.1167   20.6777 C   0  0  0  0  0  0  0  0  0  0  0  0
   13.4117  -10.4263   21.4272 C   0  0  0  0  0  0  0  0  0  0  0  0
   12.4898   -9.5965   22.1023 C   0  0  0  0  0  0  0  0  0  0  0  0
  1  2  1  0
  2  3  2  0
  2  4  1  0
  4  5  2  0
  5  6  1  0
  6  7  2  0
  7  8  1  0
  8  9  1  0
  9 10  1  0
 10 11  2  0
 10 12  1  0
 12 13  1  0
 13 14  1  0
 14 15  1  0
 15 16  1  0
 16 17  1  0
 17 18  2  0
 18 19  1  0
 19 20  2  0
 20 21  1  0
 21 22  2  0
 15 23  1  0
 23 24  1  0
  9 25  2  0
 25 26  1  0
 26 27  2  0
 27  4  1  0
 26  7  1  0
 24 12  1  0
 22 17  1  0
M  CHG  1   3   1
M  END
>  <shape_align_shape_tanimoto>  (1) 
0.69317521603842935

>  <shape_align_color_tanimoto>  (1) 
0.031258628943244021

>  <metric>  (1) 
shape

>  <metric_score>  (1) 
0.693

>  <template_pid>  (1) 
1D4P

>  <template_shape_score>  (1) 
0.693

>  <template_color_score>  (1) 
0.031

>  <template_combo_score>  (1) 
0.362

$$$$
1D4P_color_pose
     RDKit          3D

 27 30  0  0  0  0  0  0  0  0999 V2000
   20.4847  -17.6692   25.2742 N   0  0  0  0  0  0  0  0  0  0  0  0
   20.0434  -16.4599   25.9239 C   0  0  0  0  0  0  0  0  0  0  0  0
   19.9195  -16.4545   27.2041 N   0  0  0  0  0  0  0  0  0  0  0  0
   19.7334  -15.2502   25.1743 C   0  0  0  0  0  0  0  0  0  0  0  0
   19.8913  -14.0054   25.7473 C   0  0  0  0  0  0  0  0  0  0  0  0
   19.5954  -12.8458   25.0212 C   0  0  0  0  0  0  0  0  0  0  0  0
   19.1437  -12.9830   23.7235 C   0  0  0  0  0  0  0  0  0  0  0  0
   18.7996  -12.0385   22.8357 N   0  0  0  0  0  0  0  0  0  0  0  0
   18.4155  -12.6581   21.6797 C   0  0  0  0  0  0  0  0  0  0  0  0
   17.9842  -11.8923   20.5239 C   0  0  0  0  0  0  0  0  0  0  0  0
   18.7873  -11.0955   19.9750 O   0  0  0  0  0  0  0  0  0  0  0  0
   16.6941  -12.0047   19.9872 N   0  0  0  0  0  0  0  0  0  0  0  0
   16.2680  -11.2273   18.8245 C   0  0  0  0  0  0  0  0  0  0  0  0
   15.2337  -10.2482   19.3234 C   0  0  0  0  0  0  0  0  0  0  0  0
   14.6231  -10.6223   20.6281 C   0  0  0  0  0  0  0  0  0  0  0  0
   13.2755   -9.9523   20.7535 C   0  0  0  0  0  0  0  0  0  0  0  0
   12.6203  -10.2989   22.0556 C   0  0  0  0  0  0  0  0  0  0  0  0
   11.7756  -11.3856   22.1614 C   0  0  0  0  0  0  0  0  0  0  0  0
   11.2189  -11.6439   23.3858 C   0  0  0  0  0  0  0  0  0  0  0  0
   11.4499  -10.8895   24.5113 C   0  0  0  0  0  0  0  0  0  0  0  0
   12.3020   -9.7904   24.4104 C   0  0  0  0  0  0  0  0  0  0  0  0
   12.8742   -9.5185   23.1666 C   0  0  0  0  0  0  0  0  0  0  0  0
   14.4212  -12.0919   20.8310 C   0  0  0  0  0  0  0  0  0  0  0  0
   15.6648  -12.9002   20.5382 C   0  0  0  0  0  0  0  0  0  0  0  0
   18.5168  -14.0240   21.8342 C   0  0  0  0  0  0  0  0  0  0  0  0
   18.9773  -14.2246   23.1270 C   0  0  0  0  0  0  0  0  0  0  0  0
   19.2777  -15.3624   23.8680 C   0  0  0  0  0  0  0  0  0  0  0  0
  1  2  1  0
  2  3  2  0
  2  4  1  0
  4  5  2  0
  5  6  1  0
  6  7  2  0
  7  8  1  0
  8  9  1  0
  9 10  1  0
 10 11  2  0
 10 12  1  0
 12 13  1  0
 13 14  1  0
 14 15  1  0
 15 16  1  0
 16 17  1  0
 17 18  2  0
 18 19  1  0
 19 20  2  0
 20 21  1  0
 21 22  2  0
 15 23  1  0
 23 24  1  0
  9 25  2  0
 25 26  1  0
 26 27  2  0
 27  4  1  0
 26  7  1  0
 24 12  1  0
 22 17  1  0
M  CHG  1   3   1
M  END
>  <shape_align_shape_tanimoto>  (2) 
0.57178389364357318

>  <shape_align_color_tanimoto>  (2) 
0.087420440152452275

>  <metric>  (2) 
color

>  <metric_score>  (2) 
0.087

>  <template_pid>  (2) 
1D4P

>  <template_shape_score>  (2) 
0.572

>  <template_color_score>  (2) 
0.087

>  <template_combo_score>  (2) 
0.330

$$$$
1D4P_combo_pose
     RDKit          3D

 27 30  0  0  0  0  0  0  0  0999 V2000
    9.3201  -10.5657   24.8506 N   0  0  0  0  0  0  0  0  0  0  0  0
    9.7299  -11.0206   23.5466 C   0  0  0  0  0  0  0  0  0  0  0  0
    8.8636  -11.6743   22.8472 N   0  0  0  0  0  0  0  0  0  0  0  0
   11.0802  -10.7278   23.0800 C   0  0  0  0  0  0  0  0  0  0  0  0
   11.6880   -9.5768   23.5473 C   0  0  0  0  0  0  0  0  0  0  0  0
   12.9847   -9.2598   23.1227 C   0  0  0  0  0  0  0  0  0  0  0  0
   13.6049  -10.1266   22.2424 C   0  0  0  0  0  0  0  0  0  0  0  0
   14.8297  -10.0604   21.6859 N   0  0  0  0  0  0  0  0  0  0  0  0
   15.0378  -11.1201   20.8792 C   0  0  0  0  0  0  0  0  0  0  0  0
   16.2598  -11.4023   20.0936 C   0  0  0  0  0  0  0  0  0  0  0  0
   16.3254  -11.0357   18.8986 O   0  0  0  0  0  0  0  0  0  0  0  0
   17.3053  -12.0894   20.7668 N   0  0  0  0  0  0  0  0  0  0  0  0
   17.1934  -12.5046   22.1688 C   0  0  0  0  0  0  0  0  0  0  0  0
   17.5219  -13.9834   22.2999 C   0  0  0  0  0  0  0  0  0  0  0  0
   18.8353  -14.3208   21.6908 C   0  0  0  0  0  0  0  0  0  0  0  0
   19.8084  -15.0317   22.5652 C   0  0  0  0  0  0  0  0  0  0  0  0
   20.2047  -14.3195   23.7838 C   0  0  0  0  0  0  0  0  0  0  0  0
   19.5833  -14.4550   25.0069 C   0  0  0  0  0  0  0  0  0  0  0  0
   19.9646  -13.7734   26.1389 C   0  0  0  0  0  0  0  0  0  0  0  0
   21.0382  -12.8952   26.0518 C   0  0  0  0  0  0  0  0  0  0  0  0
   21.6767  -12.7392   24.8486 C   0  0  0  0  0  0  0  0  0  0  0  0
   21.2819  -13.4319   23.7178 C   0  0  0  0  0  0  0  0  0  0  0  0
   19.4902  -13.1071   21.0518 C   0  0  0  0  0  0  0  0  0  0  0  0
   18.5467  -12.4161   20.0896 C   0  0  0  0  0  0  0  0  0  0  0  0
   13.8854  -11.9102   20.9188 C   0  0  0  0  0  0  0  0  0  0  0  0
   12.9980  -11.2795   21.7734 C   0  0  0  0  0  0  0  0  0  0  0  0
   11.7176  -11.5892   22.1950 C   0  0  0  0  0  0  0  0  0  0  0  0
  1  2  1  0
  2  3  2  0
  2  4  1  0
  4  5  2  0
  5  6  1  0
  6  7  2  0
  7  8  1  0
  8  9  1  0
  9 10  1  0
 10 11  2  0
 10 12  1  0
 12 13  1  0
 13 14  1  0
 14 15  1  0
 15 16  1  0
 16 17  1  0
 17 18  2  0
 18 19  1  0
 19 20  2  0
 20 21  1  0
 21 22  2  0
 15 23  1  0
 23 24  1  0
  9 25  2  0
 25 26  1  0
 26 27  2  0
 27  4  1  0
 26  7  1  0
 24 12  1  0
 22 17  1  0
M  CHG  1   3   1
M  END
>  <shape_align_shape_tanimoto>  (3) 
0.68843645264445741

>  <shape_align_color_tanimoto>  (3) 
0.051798449133211209

>  <metric>  (3) 
combo

>  <metric_score>  (3) 
0.370

>  <template_pid>  (3) 
1D4P

>  <template_shape_score>  (3) 
0.688

>  <template_color_score>  (3) 
0.052

>  <template_combo_score>  (3) 
0.370

$$$$
