3PKA_shape_pose
     RDKit          3D

 30 30  0  0  0  0  0  0  0  0999 V2000
  -27.8036   91.4948   15.5609 C   0  0  0  0  0  0  0  0  0  0  0  0
  -28.9785   90.9940   16.0881 O   0  0  0  0  0  0  0  0  0  0  0  0
  -29.2226   91.5459   17.3900 C   0  0  1  0  0  0  0  0  0  0  0  0
  -30.4565   92.3267   17.1230 C   0  0  0  0  0  0  0  0  0  0  0  0
  -30.8827   92.2293   15.9083 O   0  0  0  0  0  0  0  0  0  0  0  0
  -31.1909   93.1279   17.9787 N   0  0  0  0  0  0  0  0  0  0  0  0
  -32.3668   93.8118   17.4970 C   0  0  0  0  0  0  0  0  0  0  0  0
  -33.4663   92.9973   16.9630 C   0  0  0  0  0  0  0  0  0  0  0  0
  -34.1188   92.0763   17.7574 O   0  0  0  0  0  0  0  0  0  0  0  0
  -34.8522   92.2893   18.8937 C   0  0  0  0  0  0  0  0  0  0  0  0
  -34.4331   92.2539   20.1857 C   0  0  0  0  0  0  0  0  0  0  0  0
  -33.0215   91.9270   20.4782 C   0  0  0  0  0  0  0  0  0  0  0  0
  -35.2665   92.4902   21.2639 C   0  0  0  0  0  0  0  0  0  0  0  0
  -36.6014   92.7803   21.0629 C   0  0  0  0  0  0  0  0  0  0  0  0
  -37.5002   93.0347   22.2137 C   0  0  0  0  0  0  0  0  0  0  0  0
  -37.0578   92.8228   19.7611 C   0  0  0  0  0  0  0  0  0  0  0  0
  -36.2137   92.5850   18.6969 C   0  0  0  0  0  0  0  0  0  0  0  0
  -36.7852   92.6500   17.3184 C   0  0  0  0  0  0  0  0  0  0  0  0
  -29.3985   90.4421   18.3682 C   0  0  2  0  0  0  0  0  0  0  0  0
  -30.5699   89.7582   18.0470 O   0  0  0  0  0  0  0  0  0  0  0  0
  -29.4129   90.7704   19.8214 C   0  0  1  0  0  0  0  0  0  0  0  0
  -29.5387   89.4870   20.4780 O   0  0  0  0  0  0  0  0  0  0  0  0
  -28.0972   91.2895   20.3656 C   0  0  2  0  0  0  0  0  0  0  0  0
  -28.2894   91.3348   21.7744 O   0  0  0  0  0  0  0  0  0  0  0  0
  -27.7571   92.6545   19.9684 C   0  0  0  0  0  0  0  0  0  0  0  0
  -28.4625   93.6905   20.4046 C   0  0  0  0  0  0  0  0  0  0  0  0
  -28.1543   95.0984   20.0276 C   0  0  0  0  0  0  0  0  0  0  0  0
  -26.7010   95.4170   20.4032 C   0  0  0  0  0  0  0  0  0  0  0  0
  -28.2548   95.2767   18.5427 C   0  0  0  0  0  0  0  0  0  0  0  0
  -28.9964   96.0872   20.7609 C   0  0  0  0  0  0  0  0  0  0  0  0
  1  2  1  0
  3  2  1  6
  3  4  1  0
  4  5  2  0
  4  6  1  0
  6  7  1  0
  7  8  1  0
  8  9  1  0
  9 10  1  0
 10 11  2  0
 11 12  1  0
 11 13  1  0
 13 14  2  0
 14 15  1  0
 14 16  1  0
 16 17  2  0
 17 18  1  0
  3 19  1  0
 19 20  1  6
 19 21  1  0
 21 22  1  1
 21 23  1  0
 23 24  1  1
 23 25  1  0
 25 26  2  0
 26 27  1  0
 27 28  1  0
 27 29  1  0
 27 30  1  0
 17 10  1  0
M  END
>  <shape_align_shape_tanimoto>  (1) 
0.60124464886287998

>  <shape_align_color_tanimoto>  (1) 
0.087480943662806038

>  <metric>  (1) 
shape

>  <metric_score>  (1) 
0.601

>  <template_pid>  (1) 
3PKA

>  <template_shape_score>  (1) 
0.601

>  <template_color_score>  (1) 
0.087

>  <template_combo_score>  (1) 
0.344

$$$$
3PKA_color_pose
     RDKit          3D

 30 30  0  0  0  0  0  0  0  0999 V2000
  -27.5119   89.2856   16.9009 C   0  0  0  0  0  0  0  0  0  0  0  0
  -28.5174   89.7886   17.7493 O   0  0  0  0  0  0  0  0  0  0  0  0
  -28.7830   91.1097   17.4374 C   0  0  1  0  0  0  0  0  0  0  0  0
  -30.1493   91.2288   16.8656 C   0  0  0  0  0  0  0  0  0  0  0  0
  -30.8591   90.2004   16.7178 O   0  0  0  0  0  0  0  0  0  0  0  0
  -30.6715   92.4927   16.4794 N   0  0  0  0  0  0  0  0  0  0  0  0
  -31.9601   92.7193   15.9183 C   0  0  0  0  0  0  0  0  0  0  0  0
  -33.1316   92.3177   16.7381 C   0  0  0  0  0  0  0  0  0  0  0  0
  -33.2624   92.9315   17.9807 O   0  0  0  0  0  0  0  0  0  0  0  0
  -34.2814   92.7080   18.8754 C   0  0  0  0  0  0  0  0  0  0  0  0
  -35.4066   93.5236   18.7783 C   0  0  0  0  0  0  0  0  0  0  0  0
  -35.5115   94.5979   17.7509 C   0  0  0  0  0  0  0  0  0  0  0  0
  -36.4795   93.3524   19.6546 C   0  0  0  0  0  0  0  0  0  0  0  0
  -36.4596   92.3839   20.6308 C   0  0  0  0  0  0  0  0  0  0  0  0
  -37.5971   92.1818   21.5817 C   0  0  0  0  0  0  0  0  0  0  0  0
  -35.3440   91.5733   20.7290 C   0  0  0  0  0  0  0  0  0  0  0  0
  -34.2883   91.7525   19.8556 C   0  0  0  0  0  0  0  0  0  0  0  0
  -33.1163   90.8600   19.9941 C   0  0  0  0  0  0  0  0  0  0  0  0
  -28.5427   92.0147   18.6103 C   0  0  2  0  0  0  0  0  0  0  0  0
  -27.1786   91.8537   18.9431 O   0  0  0  0  0  0  0  0  0  0  0  0
  -29.3044   91.5745   19.8394 C   0  0  1  0  0  0  0  0  0  0  0  0
  -29.0011   90.2453   20.1241 O   0  0  0  0  0  0  0  0  0  0  0  0
  -28.9302   92.4780   20.9925 C   0  0  2  0  0  0  0  0  0  0  0  0
  -27.5588   92.3423   21.2040 O   0  0  0  0  0  0  0  0  0  0  0  0
  -29.6323   92.1495   22.2369 C   0  0  0  0  0  0  0  0  0  0  0  0
  -30.5403   92.9960   22.7091 C   0  0  0  0  0  0  0  0  0  0  0  0
  -31.2937   92.7295   23.9675 C   0  0  0  0  0  0  0  0  0  0  0  0
  -32.6846   93.3369   23.7989 C   0  0  0  0  0  0  0  0  0  0  0  0
  -31.4019   91.2445   24.1739 C   0  0  0  0  0  0  0  0  0  0  0  0
  -30.6598   93.4057   25.1669 C   0  0  0  0  0  0  0  0  0  0  0  0
  1  2  1  0
  3  2  1  1
  3  4  1  0
  4  5  2  0
  4  6  1  0
  6  7  1  0
  7  8  1  0
  8  9  1  0
  9 10  1  0
 10 11  2  0
 11 12  1  0
 11 13  1  0
 13 14  2  0
 14 15  1  0
 14 16  1  0
 16 17  2  0
 17 18  1  0
  3 19  1  0
 19 20  1  1
 19 21  1  0
 21 22  1  1
 21 23  1  0
 23 24  1  1
 23 25  1  0
 25 26  2  0
 26 27  1  0
 27 28  1  0
 27 29  1  0
 27 30  1  0
 17 10  1  0
M  END
>  <shape_align_shape_tanimoto>  (2) 
0.50979696608563296

>  <shape_align_color_tanimoto>  (2) 
0.12326775634792056

>  <metric>  (2) 
color

>  <metric_score>  (2) 
0.123

>  <template_pid>  (2) 
3PKA

>  <template_shape_score>  (2) 
0.510

>  <template_color_score>  (2) 
0.123

>  <template_combo_score>  (2) 
0.317

$$$$
3PKA_combo_pose
     RDKit          3D

 30 30  0  0  0  0  0  0  0  0999 V2000
  -27.8036   91.4948   15.5609 C   0  0  0  0  0  0  0  0  0  0  0  0
  -28.9785   90.9940   16.0881 O   0  0  0  0  0  0  0  0  0  0  0  0
  -29.2226   91.5459   17.3900 C   0  0  1  0  0  0  0  0  0  0  0  0
  -30.4565   92.3267   17.1230 C   0  0  0  0  0  0  0  0  0  0  0  0
  -30.8827   92.2293   15.9083 O   0  0  0  0  0  0  0  0  0  0  0  0
  -31.1909   93.1279   17.9787 N   0  0  0  0  0  0  0  0  0  0  0  0
  -32.3668   93.8118   17.4970 C   0  0  0  0  0  0  0  0  0  0  0  0
  -33.4663   92.9973   16.9630 C   0  0  0  0  0  0  0  0  0  0  0  0
  -34.1188   92.0763   17.7574 O   0  0  0  0  0  0  0  0  0  0  0  0
  -34.8522   92.2893   18.8937 C   0  0  0  0  0  0  0  0  0  0  0  0
  -34.4331   92.2539   20.1857 C   0  0  0  0  0  0  0  0  0  0  0  0
  -33.0215   91.9270   20.4782 C   0  0  0  0  0  0  0  0  0  0  0  0
  -35.2665   92.4902   21.2639 C   0  0  0  0  0  0  0  0  0  0  0  0
  -36.6014   92.7803   21.0629 C   0  0  0  0  0  0  0  0  0  0  0  0
  -37.5002   93.0347   22.2137 C   0  0  0  0  0  0  0  0  0  0  0  0
  -37.0578   92.8228   19.7611 C   0  0  0  0  0  0  0  0  0  0  0  0
  -36.2137   92.5850   18.6969 C   0  0  0  0  0  0  0  0  0  0  0  0
  -36.7852   92.6500   17.3184 C   0  0  0  0  0  0  0  0  0  0  0  0
  -29.3985   90.4421   18.3682 C   0  0  2  0  0  0  0  0  0  0  0  0
  -30.5699   89.7582   18.0470 O   0  0  0  0  0  0  0  0  0  0  0  0
  -29.4129   90.7704   19.8214 C   0  0  1  0  0  0  0  0  0  0  0  0
  -29.5387   89.4870   20.4780 O   0  0  0  0  0  0  0  0  0  0  0  0
  -28.0972   91.2895   20.3656 C   0  0  2  0  0  0  0  0  0  0  0  0
  -28.2894   91.3348   21.7744 O   0  0  0  0  0  0  0  0  0  0  0  0
  -27.7571   92.6545   19.9684 C   0  0  0  0  0  0  0  0  0  0  0  0
  -28.4625   93.6905   20.4046 C   0  0  0  0  0  0  0  0  0  0  0  0
  -28.1543   95.0984   20.0276 C   0  0  0  0  0  0  0  0  0  0  0  0
  -26.7010   95.4170   20.4032 C   0  0  0  0  0  0  0  0  0  0  0  0
  -28.2548   95.2767   18.5427 C   0  0  0  0  0  0  0  0  0  0  0  0
  -28.9964   96.0872   20.7609 C   0  0  0  0  0  0  0  0  0  0  0  0
  1  2  1  0
  3  2  1  6
  3  4  1  0
  4  5  2  0
  4  6  1  0
  6  7  1  0
  7  8  1  0
  8  9  1  0
  9 10  1  0
 10 11  2  0
 11 12  1  0
 11 13  1  0
 13 14  2  0
 14 15  1  0
 14 16  1  0
 16 17  2  0
 17 18  1  0
  3 19  1  0
 19 20  1  6
 19 21  1  0
 21 22  1  1
 21 23  1  0
 23 24  1  1
 23 25  1  0
 25 26  2  0
 26 27  1  0
 27 28  1  0
 27 29  1  0
 27 30  1  0
 17 10  1  0
M  END
>  <shape_align_shape_tanimoto>  (3) 
0.60124464886287998

>  <shape_align_color_tanimoto>  (3) 
0.087480943662806038

>  <metric>  (3) 
combo

>  <metric_score>  (3) 
0.344

>  <template_pid>  (3) 
3PKA

>  <template_shape_score>  (3) 
0.601

>  <template_color_score>  (3) 
0.087

>  <template_combo_score>  (3) 
0.344

$$$$
