3Q8D_shape_pose
     RDKit          3D

 27 28  0  0  0  0  0  0  0  0999 V2000
  -11.6792   11.7084    3.0673 C   0  0  0  0  0  0  0  0  0  0  0  0
  -11.7624   10.5445    2.0851 C   0  0  0  0  0  0  0  0  0  0  0  0
  -11.2864    9.2615    2.7319 C   0  0  2  0  0  0  0  0  0  0  0  0
   -9.8521    9.4955    3.1531 C   0  0  0  0  0  0  0  0  0  0  0  0
  -11.4023    8.0997    1.7646 C   0  0  2  0  0  0  0  0  0  0  0  0
  -12.7844    7.9625    1.3877 N   0  0  0  0  0  0  0  0  0  0  0  0
  -10.7586    6.8995    2.3122 C   0  0  0  0  0  0  0  0  0  0  0  0
   -9.4976    7.0486    2.5782 O   0  0  0  0  0  0  0  0  0  0  0  0
  -11.3428    5.6488    2.5704 N   0  0  0  0  0  0  0  0  0  0  0  0
  -12.6729    5.1220    2.4175 C   0  0  0  0  0  0  0  0  0  0  0  0
  -12.8047    3.8956    3.3020 C   0  0  0  0  0  0  0  0  0  0  0  0
  -11.5483    3.9004    4.1002 C   0  0  0  0  0  0  0  0  0  0  0  0
  -10.5631    4.5178    3.1160 C   0  0  1  0  0  0  0  0  0  0  0  0
  -10.3196    3.4962    2.0634 C   0  0  0  0  0  0  0  0  0  0  0  0
  -10.7825    3.7036    0.9055 O   0  0  0  0  0  0  0  0  0  0  0  0
   -9.5876    2.3521    2.4078 N   0  0  0  0  0  0  0  0  0  0  0  0
   -9.2989    1.2899    1.4292 C   0  0  1  0  0  0  0  0  0  0  0  0
   -7.8377    1.2157    1.1276 C   0  0  0  0  0  0  0  0  0  0  0  0
   -6.9457    0.9420    2.2416 C   0  0  0  0  0  0  0  0  0  0  0  0
   -6.4738   -0.2880    2.6327 C   0  0  0  0  0  0  0  0  0  0  0  0
   -5.6396   -0.4512    3.7169 C   0  0  0  0  0  0  0  0  0  0  0  0
   -5.2342    0.6287    4.4691 C   0  0  0  0  0  0  0  0  0  0  0  0
   -5.6949    1.8703    4.0944 C   0  0  0  0  0  0  0  0  0  0  0  0
   -6.5231    2.0282    3.0177 C   0  0  0  0  0  0  0  0  0  0  0  0
   -9.9601    0.0307    1.7799 C   0  0  0  0  0  0  0  0  0  0  0  0
   -9.4232   -1.0109    2.2025 O   0  0  0  0  0  0  0  0  0  0  0  0
  -11.3600   -0.0177    1.6252 O   0  0  0  0  0  0  0  0  0  0  0  0
  1  2  1  0
  2  3  1  0
  3  4  1  6
  3  5  1  0
  5  6  1  1
  5  7  1  0
  7  8  2  0
  7  9  1  0
  9 10  1  0
 10 11  1  0
 11 12  1  0
 12 13  1  0
 13 14  1  6
 14 15  2  0
 14 16  1  0
 16 17  1  0
 17 18  1  1
 18 19  1  0
 19 20  2  0
 20 21  1  0
 21 22  2  0
 22 23  1  0
 23 24  2  0
 17 25  1  0
 25 26  2  0
 25 27  1  0
 13  9  1  0
 24 19  1  0
M  CHG  2   6   1  27  -1
M  END
>  <shape_align_shape_tanimoto>  (1) 
0.66364802931751055

>  <shape_align_color_tanimoto>  (1) 
0.066065397815506952

>  <metric>  (1) 
shape

>  <metric_score>  (1) 
0.664

>  <template_pid>  (1) 
3Q8D

>  <template_shape_score>  (1) 
0.664

>  <template_color_score>  (1) 
0.066

>  <template_combo_score>  (1) 
0.365

$$$$
3Q8D_color_pose
     RDKit          3D

 27 28  0  0  0  0  0  0  0  0999 V2000
   -8.5524    8.1318    1.6879 C   0  0  0  0  0  0  0  0  0  0  0  0
   -8.9806    9.5411    1.5561 C   0  0  0  0  0  0  0  0  0  0  0  0
  -10.4422    9.8172    1.5714 C   0  0  2  0  0  0  0  0  0  0  0  0
  -10.5559   11.3520    1.4114 C   0  0  0  0  0  0  0  0  0  0  0  0
  -11.1961    9.4324    2.7827 C   0  0  2  0  0  0  0  0  0  0  0  0
  -10.6124   10.1374    3.9316 N   0  0  0  0  0  0  0  0  0  0  0  0
  -11.4099    8.0104    3.0707 C   0  0  0  0  0  0  0  0  0  0  0  0
  -10.8919    7.5750    4.1621 O   0  0  0  0  0  0  0  0  0  0  0  0
  -12.1531    7.1131    2.2244 N   0  0  0  0  0  0  0  0  0  0  0  0
  -12.7084    7.6047    0.9439 C   0  0  0  0  0  0  0  0  0  0  0  0
  -13.9443    6.6697    0.8440 C   0  0  0  0  0  0  0  0  0  0  0  0
  -13.3989    5.3586    1.3414 C   0  0  0  0  0  0  0  0  0  0  0  0
  -12.4989    5.7787    2.4746 C   0  0  1  0  0  0  0  0  0  0  0  0
  -11.5356    4.7654    2.8465 C   0  0  0  0  0  0  0  0  0  0  0  0
  -12.0099    3.6139    3.1930 O   0  0  0  0  0  0  0  0  0  0  0  0
  -10.1296    4.8591    2.8831 N   0  0  0  0  0  0  0  0  0  0  0  0
   -9.2666    3.7468    3.2843 C   0  0  1  0  0  0  0  0  0  0  0  0
   -8.4188    3.2830    2.1180 C   0  0  0  0  0  0  0  0  0  0  0  0
   -7.5325    2.1479    2.5129 C   0  0  0  0  0  0  0  0  0  0  0  0
   -6.2643    2.3496    3.0112 C   0  0  0  0  0  0  0  0  0  0  0  0
   -5.4990    1.2796    3.3555 C   0  0  0  0  0  0  0  0  0  0  0  0
   -5.9180   -0.0343    3.2363 C   0  0  0  0  0  0  0  0  0  0  0  0
   -7.1876   -0.2409    2.7376 C   0  0  0  0  0  0  0  0  0  0  0  0
   -7.9967    0.8387    2.3755 C   0  0  0  0  0  0  0  0  0  0  0  0
   -8.4778    4.0320    4.4812 C   0  0  0  0  0  0  0  0  0  0  0  0
   -7.9786    3.0650    5.1137 O   0  0  0  0  0  0  0  0  0  0  0  0
   -8.2533    5.3343    4.9547 O   0  0  0  0  0  0  0  0  0  0  0  0
  1  2  1  0
  2  3  1  0
  3  4  1  1
  3  5  1  0
  5  6  1  1
  5  7  1  0
  7  8  2  0
  7  9  1  0
  9 10  1  0
 10 11  1  0
 11 12  1  0
 12 13  1  0
 13 14  1  6
 14 15  2  0
 14 16  1  0
 16 17  1  0
 17 18  1  6
 18 19  1  0
 19 20  2  0
 20 21  1  0
 21 22  2  0
 22 23  1  0
 23 24  2  0
 17 25  1  0
 25 26  2  0
 25 27  1  0
 13  9  1  0
 24 19  1  0
M  CHG  2   6   1  27  -1
M  END
>  <shape_align_shape_tanimoto>  (2) 
0.53676471949163918

>  <shape_align_color_tanimoto>  (2) 
0.10147159564433635

>  <metric>  (2) 
color

>  <metric_score>  (2) 
0.101

>  <template_pid>  (2) 
3Q8D

>  <template_shape_score>  (2) 
0.537

>  <template_color_score>  (2) 
0.101

>  <template_combo_score>  (2) 
0.319

$$$$
3Q8D_combo_pose
     RDKit          3D

 27 28  0  0  0  0  0  0  0  0999 V2000
  -11.6792   11.7084    3.0673 C   0  0  0  0  0  0  0  0  0  0  0  0
  -11.7624   10.5445    2.0851 C   0  0  0  0  0  0  0  0  0  0  0  0
  -11.2864    9.2615    2.7319 C   0  0  2  0  0  0  0  0  0  0  0  0
   -9.8521    9.4955    3.1531 C   0  0  0  0  0  0  0  0  0  0  0  0
  -11.4023    8.0997    1.7646 C   0  0  2  0  0  0  0  0  0  0  0  0
  -12.7844    7.9625    1.3877 N   0  0  0  0  0  0  0  0  0  0  0  0
  -10.7586    6.8995    2.3122 C   0  0  0  0  0  0  0  0  0  0  0  0
   -9.4976    7.0486    2.5782 O   0  0  0  0  0  0  0  0  0  0  0  0
  -11.3428    5.6488    2.5704 N   0  0  0  0  0  0  0  0  0  0  0  0
  -12.6729    5.1220    2.4175 C   0  0  0  0  0  0  0  0  0  0  0  0
  -12.8047    3.8956    3.3020 C   0  0  0  0  0  0  0  0  0  0  0  0
  -11.5483    3.9004    4.1002 C   0  0  0  0  0  0  0  0  0  0  0  0
  -10.5631    4.5178    3.1160 C   0  0  1  0  0  0  0  0  0  0  0  0
  -10.3196    3.4962    2.0634 C   0  0  0  0  0  0  0  0  0  0  0  0
  -10.7825    3.7036    0.9055 O   0  0  0  0  0  0  0  0  0  0  0  0
   -9.5876    2.3521    2.4078 N   0  0  0  0  0  0  0  0  0  0  0  0
   -9.2989    1.2899    1.4292 C   0  0  1  0  0  0  0  0  0  0  0  0
   -7.8377    1.2157    1.1276 C   0  0  0  0  0  0  0  0  0  0  0  0
   -6.9457    0.9420    2.2416 C   0  0  0  0  0  0  0  0  0  0  0  0
   -6.4738   -0.2880    2.6327 C   0  0  0  0  0  0  0  0  0  0  0  0
   -5.6396   -0.4512    3.7169 C   0  0  0  0  0  0  0  0  0  0  0  0
   -5.2342    0.6287    4.4691 C   0  0  0  0  0  0  0  0  0  0  0  0
   -5.6949    1.8703    4.0944 C   0  0  0  0  0  0  0  0  0  0  0  0
   -6.5231    2.0282    3.0177 C   0  0  0  0  0  0  0  0  0  0  0  0
   -9.9601    0.0307    1.7799 C   0  0  0  0  0  0  0  0  0  0  0  0
   -9.4232   -1.0109    2.2025 O   0  0  0  0  0  0  0  0  0  0  0  0
  -11.3600   -0.0177    1.6252 O   0  0  0  0  0  0  0  0  0  0  0  0
  1  2  1  0
  2  3  1  0
  3  4  1  6
  3  5  1  0
  5  6  1  1
  5  7  1  0
  7  8  2  0
  7  9  1  0
  9 10  1  0
 10 11  1  0
 11 12  1  0
 12 13  1  0
 13 14  1  6
 14 15  2  0
 14 16  1  0
 16 17  1  0
 17 18  1  1
 18 19  1  0
 19 20  2  0
 20 21  1  0
 21 22  2  0
 22 23  1  0
 23 24  2  0
 17 25  1  0
 25 26  2  0
 25 27  1  0
 13  9  1  0
 24 19  1  0
M  CHG  2   6   1  27  -1
M  END
>  <shape_align_shape_tanimoto>  (3) 
0.66364802931751055

>  <shape_align_color_tanimoto>  (3) 
0.066065397815506952

>  <metric>  (3) 
combo

>  <metric_score>  (3) 
0.365

>  <template_pid>  (3) 
3Q8D

>  <template_shape_score>  (3) 
0.664

>  <template_color_score>  (3) 
0.066

>  <template_combo_score>  (3) 
0.365

$$$$
