4U0B_shape_pose
     RDKit          3D

100106  0  0  0  0  0  0  0  0999 V2000
    2.0481    0.5783   -5.7798 C   0  0  0  0  0  0  0  0  0  0  0  0
    1.3080    0.3206   -4.4633 C   0  0  0  0  0  0  0  0  0  0  0  0
    1.2736   -1.2050   -4.3074 C   0  0  0  0  0  0  0  0  0  0  0  0
   -0.1136    0.7291   -4.7006 C   0  0  0  0  0  0  0  0  0  0  0  0
   -1.0446    0.5402   -3.5036 C   0  0  2  0  0  0  0  0  0  0  0  0
   -2.3805    0.9197   -3.8220 N   0  0  0  0  0  0  0  0  0  0  0  0
   -3.0039    0.9128   -5.0837 C   0  0  0  0  0  0  0  0  0  0  0  0
   -2.4305    0.5754   -6.1548 O   0  0  0  0  0  0  0  0  0  0  0  0
   -4.4145    1.3245   -5.2265 C   0  0  1  0  0  0  0  0  0  0  0  0
   -4.6909    1.6229   -6.6262 N   0  0  0  0  0  0  0  0  0  0  0  0
   -5.5101    2.7380   -6.8816 C   0  0  0  0  0  0  0  0  0  0  0  0
   -5.9431    3.3751   -5.8831 O   0  0  0  0  0  0  0  0  0  0  0  0
   -5.8997    3.2172   -8.2132 C   0  0  2  0  0  0  0  0  0  0  0  0
   -7.3422    2.8290   -8.5585 C   0  0  0  0  0  0  0  0  0  0  0  0
   -7.3438    3.1707  -10.0324 C   0  0  0  0  0  0  0  0  0  0  0  0
   -5.8748    3.1433  -10.4468 C   0  0  0  0  0  0  0  0  0  0  0  0
   -5.1593    2.6123   -9.2946 N   0  0  0  0  0  0  0  0  0  0  0  0
   -5.3332    0.1425   -4.9222 C   0  0  0  0  0  0  0  0  0  0  0  0
   -5.0986   -0.3496   -3.5272 C   0  0  0  0  0  0  0  0  0  0  0  0
   -5.1555   -0.9409   -5.9517 C   0  0  0  0  0  0  0  0  0  0  0  0
   -0.5501    1.1183   -2.2576 C   0  0  0  0  0  0  0  0  0  0  0  0
    0.6634    0.9675   -1.8811 O   0  0  0  0  0  0  0  0  0  0  0  0
   -1.3411    1.8865   -1.3738 N   0  0  0  0  0  0  0  0  0  0  0  0
   -0.8259    2.4999   -0.1385 C   0  0  1  0  0  0  0  0  0  0  0  0
   -1.4647    1.8509    0.9984 C   0  0  0  0  0  0  0  0  0  0  0  0
   -1.1079    2.3250    2.3399 C   0  0  0  0  0  0  0  0  0  0  0  0
   -1.7671    3.4592    2.8006 C   0  0  0  0  0  0  0  0  0  0  0  0
   -1.5548    3.9817    4.0583 C   0  0  0  0  0  0  0  0  0  0  0  0
   -0.6704    3.3712    4.8868 C   0  0  0  0  0  0  0  0  0  0  0  0
    0.0184    2.2299    4.4768 C   0  0  0  0  0  0  0  0  0  0  0  0
   -0.2268    1.7360    3.1952 C   0  0  0  0  0  0  0  0  0  0  0  0
    0.6241    2.5622   -0.1698 C   0  0  0  0  0  0  0  0  0  0  0  0
    1.2425    1.8226    0.6793 O   0  0  0  0  0  0  0  0  0  0  0  0
    1.4553    3.3299   -0.9983 N   0  0  0  0  0  0  0  0  0  0  0  0
    2.9332    3.1867   -0.8927 C   0  0  0  0  0  0  0  0  0  0  0  0
    3.2801    3.1636   -2.3888 C   0  0  0  0  0  0  0  0  0  0  0  0
    2.1428    3.7588   -3.1260 C   0  0  0  0  0  0  0  0  0  0  0  0
    1.3078    4.3549   -1.9800 C   0  0  1  0  0  0  0  0  0  0  0  0
   -0.0195    4.7628   -2.3828 C   0  0  0  0  0  0  0  0  0  0  0  0
   -0.8272    4.1783   -3.1235 O   0  0  0  0  0  0  0  0  0  0  0  0
   -0.4925    6.0288   -1.8532 N   0  0  0  0  0  0  0  0  0  0  0  0
   -1.7680    6.5776   -2.1074 C   0  0  0  0  0  0  0  0  0  0  0  0
   -2.0621    6.7741   -3.5389 C   0  0  0  0  0  0  0  0  0  0  0  0
   -1.2699    6.4307   -4.4677 O   0  0  0  0  0  0  0  0  0  0  0  0
   -3.3177    7.3869   -3.8272 N   0  0  0  0  0  0  0  0  0  0  0  0
   -3.8523    7.6814   -5.1065 C   0  0  1  0  0  0  0  0  0  0  0  0
   -5.2486    7.0939   -5.2370 C   0  0  0  0  0  0  0  0  0  0  0  0
   -3.7894    9.0525   -5.5801 C   0  0  0  0  0  0  0  0  0  0  0  0
   -4.5516    9.3298   -6.5918 O   0  0  0  0  0  0  0  0  0  0  0  0
   -3.0314   10.1539   -5.1367 N   0  0  0  0  0  0  0  0  0  0  0  0
   -3.2290   11.4578   -5.8170 C   0  0  0  0  0  0  0  0  0  0  0  0
   -1.8599   12.0141   -5.9307 C   0  0  0  0  0  0  0  0  0  0  0  0
   -1.0231   11.2641   -4.9488 C   0  0  0  0  0  0  0  0  0  0  0  0
   -2.0122   10.3735   -4.2052 C   0  0  1  0  0  0  0  0  0  0  0  0
   -2.2809   11.0077   -2.9213 C   0  0  0  0  0  0  0  0  0  0  0  0
   -2.2706   10.2397   -1.8873 O   0  0  0  0  0  0  0  0  0  0  0  0
   -2.5414   12.3623   -2.6710 N   0  0  0  0  0  0  0  0  0  0  0  0
   -2.7794   12.9953   -1.4227 C   0  0  1  0  0  0  0  0  0  0  0  0
   -3.8066   12.2769   -0.5655 C   0  0  0  0  0  0  0  0  0  0  0  0
   -5.1313   12.2245   -1.2008 C   0  0  0  0  0  0  0  0  0  0  0  0
   -5.9773   13.3082   -0.9458 C   0  0  0  0  0  0  0  0  0  0  0  0
   -7.2352   13.3695   -1.4737 C   0  0  0  0  0  0  0  0  0  0  0  0
   -7.7339   12.3731   -2.2804 C   0  0  0  0  0  0  0  0  0  0  0  0
   -6.9024   11.3106   -2.5291 C   0  0  0  0  0  0  0  0  0  0  0  0
   -5.6133   11.2389   -1.9932 C   0  0  0  0  0  0  0  0  0  0  0  0
   -1.5996   13.2860   -0.6160 C   0  0  0  0  0  0  0  0  0  0  0  0
   -1.6899   13.9837    0.4490 O   0  0  0  0  0  0  0  0  0  0  0  0
   -0.3319   12.7864   -1.0197 N   0  0  0  0  0  0  0  0  0  0  0  0
    0.8356   13.1009   -0.2268 C   0  0  0  0  0  0  0  0  0  0  0  0
    2.0792   12.5035   -0.7157 C   0  0  0  0  0  0  0  0  0  0  0  0
    3.1375   12.7963   -0.0764 O   0  0  0  0  0  0  0  0  0  0  0  0
    2.1881   11.6400   -1.8231 N   0  0  0  0  0  0  0  0  0  0  0  0
    3.5473   11.1567   -2.1285 C   0  0  1  0  0  0  0  0  0  0  0  0
    3.5851    9.7548   -1.5102 C   0  0  0  0  0  0  0  0  0  0  0  0
    3.3236    9.8047   -0.0238 C   0  0  0  0  0  0  0  0  0  0  0  0
    3.3598    8.3973    0.4960 C   0  0  0  0  0  0  0  0  0  0  0  0
    3.0332    8.2101    1.8575 N   0  0  0  0  0  0  0  0  0  0  0  0
    3.6745    7.4429   -0.2751 O   0  0  0  0  0  0  0  0  0  0  0  0
    3.6833   11.0566   -3.6054 C   0  0  0  0  0  0  0  0  0  0  0  0
    2.5558   11.1987   -4.2129 O   0  0  0  0  0  0  0  0  0  0  0  0
    4.8897   10.8304   -4.2476 N   0  0  0  0  0  0  0  0  0  0  0  0
    6.1719   10.8164   -3.4791 C   0  0  0  0  0  0  0  0  0  0  0  0
    6.7303    9.4952   -3.9295 C   0  0  0  0  0  0  0  0  0  0  0  0
    6.1404    9.2569   -5.3210 C   0  0  0  0  0  0  0  0  0  0  0  0
    5.3565   10.5132   -5.5602 C   0  0  1  0  0  0  0  0  0  0  0  0
    4.4177   10.5037   -6.6536 C   0  0  0  0  0  0  0  0  0  0  0  0
    3.3235   11.1399   -6.5195 O   0  0  0  0  0  0  0  0  0  0  0  0
    4.5897    9.8382   -7.9034 N   0  0  0  0  0  0  0  0  0  0  0  0
    5.6702    9.0178   -8.3735 C   0  0  0  0  0  0  0  0  0  0  0  0
    5.2699    8.5536   -9.7223 C   0  0  0  0  0  0  0  0  0  0  0  0
    4.3705    9.6483  -10.2234 C   0  0  0  0  0  0  0  0  0  0  0  0
    3.5868    9.9348   -8.9596 C   0  0  1  0  0  0  0  0  0  0  0  0
    2.4404    9.0608   -8.7430 C   0  0  0  0  0  0  0  0  0  0  0  0
    2.4109    8.3961   -7.6666 O   0  0  0  0  0  0  0  0  0  0  0  0
    1.3909    8.9366   -9.6797 N   0  0  0  0  0  0  0  0  0  0  0  0
    0.3142    8.0152   -9.3075 C   0  0  1  0  0  0  0  0  0  0  0  0
   -0.9933    8.7571   -9.3718 C   0  0  0  0  0  0  0  0  0  0  0  0
    0.2647    6.9515  -10.3526 C   0  0  0  0  0  0  0  0  0  0  0  0
    0.8593    7.0470  -11.4532 O   0  0  0  0  0  0  0  0  0  0  0  0
   -0.4734    5.8104  -10.0835 O   0  0  0  0  0  0  0  0  0  0  0  0
  1  2  1  0
  2  3  1  0
  2  4  1  0
  5  4  1  6
  5  6  1  0
  6  7  1  0
  7  8  2  0
  7  9  1  0
  9 10  1  6
 10 11  1  0
 11 12  2  0
 13 11  1  1
 13 14  1  0
 14 15  1  0
 15 16  1  0
 16 17  1  0
  9 18  1  0
 18 19  1  0
 18 20  1  0
  5 21  1  0
 21 22  2  0
 21 23  1  0
 23 24  1  0
 24 25  1  1
 25 26  1  0
 26 27  2  0
 27 28  1  0
 28 29  2  0
 29 30  1  0
 30 31  2  0
 24 32  1  0
 32 33  2  0
 32 34  1  0
 34 35  1  0
 35 36  1  0
 36 37  1  0
 37 38  1  0
 38 39  1  6
 39 40  2  0
 39 41  1  0
 41 42  1  0
 42 43  1  0
 43 44  2  0
 43 45  1  0
 45 46  1  0
 46 47  1  1
 46 48  1  0
 48 49  2  0
 48 50  1  0
 50 51  1  0
 51 52  1  0
 52 53  1  0
 53 54  1  0
 54 55  1  1
 55 56  2  0
 55 57  1  0
 57 58  1  0
 58 59  1  1
 59 60  1  0
 60 61  2  0
 61 62  1  0
 62 63  2  0
 63 64  1  0
 64 65  2  0
 58 66  1  0
 66 67  2  0
 66 68  1  0
 68 69  1  0
 69 70  1  0
 70 71  2  0
 70 72  1  0
 72 73  1  0
 73 74  1  1
 74 75  1  0
 75 76  1  0
 76 77  1  0
 76 78  2  0
 73 79  1  0
 79 80  2  0
 79 81  1  0
 81 82  1  0
 82 83  1  0
 83 84  1  0
 84 85  1  0
 85 86  1  6
 86 87  2  0
 86 88  1  0
 88 89  1  0
 89 90  1  0
 90 91  1  0
 91 92  1  0
 92 93  1  1
 93 94  2  0
 93 95  1  0
 95 96  1  0
 96 97  1  6
 96 98  1  0
 98 99  2  0
 98100  1  0
 17 13  1  0
 31 26  1  0
 38 34  1  0
 54 50  1  0
 65 60  1  0
 85 81  1  0
 92 88  1  0
M  CHG  2  17   1 100  -1
M  END
>  <shape_align_shape_tanimoto>  (1) 
0.36721288821965897

>  <shape_align_color_tanimoto>  (1) 
0.03476410813599605

>  <metric>  (1) 
shape

>  <metric_score>  (1) 
0.367

>  <template_pid>  (1) 
4U0B

>  <template_shape_score>  (1) 
0.367

>  <template_color_score>  (1) 
0.035

>  <template_combo_score>  (1) 
0.201

$$$$
4U0B_color_pose
     RDKit          3D

100106  0  0  0  0  0  0  0  0999 V2000
    1.2116   12.1983   -1.0415 C   0  0  0  0  0  0  0  0  0  0  0  0
    0.5532   11.5502    0.1366 C   0  0  0  0  0  0  0  0  0  0  0  0
   -0.7682   12.3116    0.3680 C   0  0  0  0  0  0  0  0  0  0  0  0
    0.1150   10.1199   -0.0920 C   0  0  0  0  0  0  0  0  0  0  0  0
    1.2176    9.1777   -0.4703 C   0  0  2  0  0  0  0  0  0  0  0  0
    0.7632    7.8228   -0.6380 N   0  0  0  0  0  0  0  0  0  0  0  0
    0.8979    7.1949   -1.9104 C   0  0  0  0  0  0  0  0  0  0  0  0
    1.4024    7.7815   -2.9061 O   0  0  0  0  0  0  0  0  0  0  0  0
    0.4486    5.7790   -2.1578 C   0  0  1  0  0  0  0  0  0  0  0  0
   -0.2162    5.2017   -1.0311 N   0  0  0  0  0  0  0  0  0  0  0  0
    0.2844    4.1382   -0.2357 C   0  0  0  0  0  0  0  0  0  0  0  0
    1.4163    3.6315   -0.5062 O   0  0  0  0  0  0  0  0  0  0  0  0
   -0.5320    3.6451    0.8944 C   0  0  2  0  0  0  0  0  0  0  0  0
   -0.9263    2.2001    0.6357 C   0  0  0  0  0  0  0  0  0  0  0  0
   -2.1018    1.9955    1.5496 C   0  0  0  0  0  0  0  0  0  0  0  0
   -2.5930    3.3979    1.8393 C   0  0  0  0  0  0  0  0  0  0  0  0
   -1.8391    4.2716    0.9529 N   0  0  0  0  0  0  0  0  0  0  0  0
   -0.3038    5.6638   -3.4509 C   0  0  0  0  0  0  0  0  0  0  0  0
   -1.5489    6.4954   -3.5301 C   0  0  0  0  0  0  0  0  0  0  0  0
   -0.6497    4.2192   -3.6553 C   0  0  0  0  0  0  0  0  0  0  0  0
    2.4298    9.3357    0.3137 C   0  0  0  0  0  0  0  0  0  0  0  0
    2.9384   10.4912    0.3873 O   0  0  0  0  0  0  0  0  0  0  0  0
    3.1329    8.3145    1.0252 N   0  0  0  0  0  0  0  0  0  0  0  0
    4.3391    8.7572    1.6983 C   0  0  1  0  0  0  0  0  0  0  0  0
    4.7390    7.9209    2.8519 C   0  0  0  0  0  0  0  0  0  0  0  0
    3.7387    7.8660    3.9313 C   0  0  0  0  0  0  0  0  0  0  0  0
    2.7061    6.9741    4.0189 C   0  0  0  0  0  0  0  0  0  0  0  0
    1.8178    6.9971    5.0774 C   0  0  0  0  0  0  0  0  0  0  0  0
    1.9184    7.9145    6.0983 C   0  0  0  0  0  0  0  0  0  0  0  0
    2.9755    8.8337    6.0176 C   0  0  0  0  0  0  0  0  0  0  0  0
    3.8651    8.8096    4.9599 C   0  0  0  0  0  0  0  0  0  0  0  0
    5.4300    8.7655    0.6744 C   0  0  0  0  0  0  0  0  0  0  0  0
    6.4309    9.5119    0.9884 O   0  0  0  0  0  0  0  0  0  0  0  0
    5.4511    8.0694   -0.5363 N   0  0  0  0  0  0  0  0  0  0  0  0
    4.6483    7.0358   -1.1386 C   0  0  0  0  0  0  0  0  0  0  0  0
    5.6747    6.1359   -1.8760 C   0  0  0  0  0  0  0  0  0  0  0  0
    6.8794    7.0188   -2.0272 C   0  0  0  0  0  0  0  0  0  0  0  0
    6.4199    8.4003   -1.6124 C   0  0  1  0  0  0  0  0  0  0  0  0
    5.7007    9.0782   -2.7269 C   0  0  0  0  0  0  0  0  0  0  0  0
    4.4774    9.4337   -2.6323 O   0  0  0  0  0  0  0  0  0  0  0  0
    6.3092    9.3738   -3.9792 N   0  0  0  0  0  0  0  0  0  0  0  0
    5.4460    9.9942   -4.9830 C   0  0  0  0  0  0  0  0  0  0  0  0
    6.2126   10.2392   -6.2358 C   0  0  0  0  0  0  0  0  0  0  0  0
    7.4437    9.9737   -6.1770 O   0  0  0  0  0  0  0  0  0  0  0  0
    5.5654   10.7344   -7.4096 N   0  0  0  0  0  0  0  0  0  0  0  0
    6.1917   10.9998   -8.6506 C   0  0  1  0  0  0  0  0  0  0  0  0
    7.6410   10.3344   -8.6083 C   0  0  0  0  0  0  0  0  0  0  0  0
    5.6439   10.5283   -9.8937 C   0  0  0  0  0  0  0  0  0  0  0  0
    6.4344   10.8207  -10.9304 O   0  0  0  0  0  0  0  0  0  0  0  0
    4.5206    9.8411  -10.2919 N   0  0  0  0  0  0  0  0  0  0  0  0
    4.4484    9.3558  -11.7462 C   0  0  0  0  0  0  0  0  0  0  0  0
    4.2136    7.8796  -11.4157 C   0  0  0  0  0  0  0  0  0  0  0  0
    3.5317    7.8548  -10.0128 C   0  0  0  0  0  0  0  0  0  0  0  0
    3.2654    9.3192   -9.8504 C   0  0  1  0  0  0  0  0  0  0  0  0
    2.5882    9.8162   -8.6874 C   0  0  0  0  0  0  0  0  0  0  0  0
    2.5481    9.1473   -7.6186 O   0  0  0  0  0  0  0  0  0  0  0  0
    1.9621   11.1006   -8.8184 N   0  0  0  0  0  0  0  0  0  0  0  0
    1.2234   11.8000   -7.8112 C   0  0  1  0  0  0  0  0  0  0  0  0
    1.3522   13.2748   -7.9025 C   0  0  0  0  0  0  0  0  0  0  0  0
    2.7295   13.7986   -7.7581 C   0  0  0  0  0  0  0  0  0  0  0  0
    3.6054   13.9470   -8.8192 C   0  0  0  0  0  0  0  0  0  0  0  0
    4.8449   14.4676   -8.5426 C   0  0  0  0  0  0  0  0  0  0  0  0
    5.2408   14.8343   -7.2933 C   0  0  0  0  0  0  0  0  0  0  0  0
    4.3713   14.6867   -6.2289 C   0  0  0  0  0  0  0  0  0  0  0  0
    3.1240   14.1702   -6.4769 C   0  0  0  0  0  0  0  0  0  0  0  0
   -0.2290   11.4371   -8.0506 C   0  0  0  0  0  0  0  0  0  0  0  0
   -0.3970   10.4802   -8.8679 O   0  0  0  0  0  0  0  0  0  0  0  0
   -1.3044   12.1049   -7.4212 N   0  0  0  0  0  0  0  0  0  0  0  0
   -2.6259   11.6273   -7.7383 C   0  0  0  0  0  0  0  0  0  0  0  0
   -3.6659   12.4560   -7.0789 C   0  0  0  0  0  0  0  0  0  0  0  0
   -3.3714   13.4676   -6.3817 O   0  0  0  0  0  0  0  0  0  0  0  0
   -5.0115   12.0579   -7.2687 N   0  0  0  0  0  0  0  0  0  0  0  0
   -6.1895   12.6809   -6.7718 C   0  0  1  0  0  0  0  0  0  0  0  0
   -7.2112   13.1306   -7.7047 C   0  0  0  0  0  0  0  0  0  0  0  0
   -7.8697   12.1829   -8.6231 C   0  0  0  0  0  0  0  0  0  0  0  0
   -6.9387   11.6456   -9.6263 C   0  0  0  0  0  0  0  0  0  0  0  0
   -7.2234   10.3652  -10.2293 N   0  0  0  0  0  0  0  0  0  0  0  0
   -5.8916   12.2181  -10.0207 O   0  0  0  0  0  0  0  0  0  0  0  0
   -6.6905   12.0266   -5.5433 C   0  0  0  0  0  0  0  0  0  0  0  0
   -5.7121   11.4170   -4.9100 O   0  0  0  0  0  0  0  0  0  0  0  0
   -7.9266   11.9354   -4.9591 N   0  0  0  0  0  0  0  0  0  0  0  0
   -9.3119   12.2249   -5.2589 C   0  0  0  0  0  0  0  0  0  0  0  0
   -9.9584   10.8888   -4.7567 C   0  0  0  0  0  0  0  0  0  0  0  0
   -8.8675   10.2529   -3.8378 C   0  0  0  0  0  0  0  0  0  0  0  0
   -8.0861   11.4377   -3.5347 C   0  0  1  0  0  0  0  0  0  0  0  0
   -6.9264   11.5526   -2.7277 C   0  0  0  0  0  0  0  0  0  0  0  0
   -6.3443   12.7293   -2.7758 O   0  0  0  0  0  0  0  0  0  0  0  0
   -6.2769   10.6419   -1.8757 N   0  0  0  0  0  0  0  0  0  0  0  0
   -6.7171    9.2600   -1.7001 C   0  0  0  0  0  0  0  0  0  0  0  0
   -5.4422    8.5277   -1.4501 C   0  0  0  0  0  0  0  0  0  0  0  0
   -4.3381    9.5559   -1.4090 C   0  0  0  0  0  0  0  0  0  0  0  0
   -5.1501   10.7957   -0.9795 C   0  0  1  0  0  0  0  0  0  0  0  0
   -4.3670   12.0085   -1.0897 C   0  0  0  0  0  0  0  0  0  0  0  0
   -4.1632   12.6557    0.0152 O   0  0  0  0  0  0  0  0  0  0  0  0
   -3.7904   12.5921   -2.2269 N   0  0  0  0  0  0  0  0  0  0  0  0
   -3.0417   13.8431   -2.2208 C   0  0  1  0  0  0  0  0  0  0  0  0
   -1.7715   13.8091   -2.9927 C   0  0  0  0  0  0  0  0  0  0  0  0
   -3.8817   14.9309   -2.8298 C   0  0  0  0  0  0  0  0  0  0  0  0
   -3.6431   15.4093   -3.9634 O   0  0  0  0  0  0  0  0  0  0  0  0
   -4.9654   15.4185   -2.0971 O   0  0  0  0  0  0  0  0  0  0  0  0
  1  2  1  0
  2  3  1  0
  2  4  1  0
  5  4  1  1
  5  6  1  0
  6  7  1  0
  7  8  2  0
  7  9  1  0
  9 10  1  1
 10 11  1  0
 11 12  2  0
 13 11  1  6
 13 14  1  0
 14 15  1  0
 15 16  1  0
 16 17  1  0
  9 18  1  0
 18 19  1  0
 18 20  1  0
  5 21  1  0
 21 22  2  0
 21 23  1  0
 23 24  1  0
 24 25  1  1
 25 26  1  0
 26 27  2  0
 27 28  1  0
 28 29  2  0
 29 30  1  0
 30 31  2  0
 24 32  1  0
 32 33  2  0
 32 34  1  0
 34 35  1  0
 35 36  1  0
 36 37  1  0
 37 38  1  0
 38 39  1  6
 39 40  2  0
 39 41  1  0
 41 42  1  0
 42 43  1  0
 43 44  2  0
 43 45  1  0
 45 46  1  0
 46 47  1  1
 46 48  1  0
 48 49  2  0
 48 50  1  0
 50 51  1  0
 51 52  1  0
 52 53  1  0
 53 54  1  0
 54 55  1  1
 55 56  2  0
 55 57  1  0
 57 58  1  0
 58 59  1  6
 59 60  1  0
 60 61  2  0
 61 62  1  0
 62 63  2  0
 63 64  1  0
 64 65  2  0
 58 66  1  0
 66 67  2  0
 66 68  1  0
 68 69  1  0
 69 70  1  0
 70 71  2  0
 70 72  1  0
 72 73  1  0
 73 74  1  6
 74 75  1  0
 75 76  1  0
 76 77  1  0
 76 78  2  0
 73 79  1  0
 79 80  2  0
 79 81  1  0
 81 82  1  0
 82 83  1  0
 83 84  1  0
 84 85  1  0
 85 86  1  6
 86 87  2  0
 86 88  1  0
 88 89  1  0
 89 90  1  0
 90 91  1  0
 91 92  1  0
 92 93  1  6
 93 94  2  0
 93 95  1  0
 95 96  1  0
 96 97  1  6
 96 98  1  0
 98 99  2  0
 98100  1  0
 17 13  1  0
 31 26  1  0
 38 34  1  0
 54 50  1  0
 65 60  1  0
 85 81  1  0
 92 88  1  0
M  CHG  2  17   1 100  -1
M  END
>  <shape_align_shape_tanimoto>  (2) 
0.2799042633210157

>  <shape_align_color_tanimoto>  (2) 
0.054742281335070961

>  <metric>  (2) 
color

>  <metric_score>  (2) 
0.055

>  <template_pid>  (2) 
4U0B

>  <template_shape_score>  (2) 
0.280

>  <template_color_score>  (2) 
0.055

>  <template_combo_score>  (2) 
0.167

$$$$
4U0B_combo_pose
     RDKit          3D

100106  0  0  0  0  0  0  0  0999 V2000
    2.0481    0.5783   -5.7798 C   0  0  0  0  0  0  0  0  0  0  0  0
    1.3080    0.3206   -4.4633 C   0  0  0  0  0  0  0  0  0  0  0  0
    1.2736   -1.2050   -4.3074 C   0  0  0  0  0  0  0  0  0  0  0  0
   -0.1136    0.7291   -4.7006 C   0  0  0  0  0  0  0  0  0  0  0  0
   -1.0446    0.5402   -3.5036 C   0  0  2  0  0  0  0  0  0  0  0  0
   -2.3805    0.9197   -3.8220 N   0  0  0  0  0  0  0  0  0  0  0  0
   -3.0039    0.9128   -5.0837 C   0  0  0  0  0  0  0  0  0  0  0  0
   -2.4305    0.5754   -6.1548 O   0  0  0  0  0  0  0  0  0  0  0  0
   -4.4145    1.3245   -5.2265 C   0  0  1  0  0  0  0  0  0  0  0  0
   -4.6909    1.6229   -6.6262 N   0  0  0  0  0  0  0  0  0  0  0  0
   -5.5101    2.7380   -6.8816 C   0  0  0  0  0  0  0  0  0  0  0  0
   -5.9431    3.3751   -5.8831 O   0  0  0  0  0  0  0  0  0  0  0  0
   -5.8997    3.2172   -8.2132 C   0  0  2  0  0  0  0  0  0  0  0  0
   -7.3422    2.8290   -8.5585 C   0  0  0  0  0  0  0  0  0  0  0  0
   -7.3438    3.1707  -10.0324 C   0  0  0  0  0  0  0  0  0  0  0  0
   -5.8748    3.1433  -10.4468 C   0  0  0  0  0  0  0  0  0  0  0  0
   -5.1593    2.6123   -9.2946 N   0  0  0  0  0  0  0  0  0  0  0  0
   -5.3332    0.1425   -4.9222 C   0  0  0  0  0  0  0  0  0  0  0  0
   -5.0986   -0.3496   -3.5272 C   0  0  0  0  0  0  0  0  0  0  0  0
   -5.1555   -0.9409   -5.9517 C   0  0  0  0  0  0  0  0  0  0  0  0
   -0.5501    1.1183   -2.2576 C   0  0  0  0  0  0  0  0  0  0  0  0
    0.6634    0.9675   -1.8811 O   0  0  0  0  0  0  0  0  0  0  0  0
   -1.3411    1.8865   -1.3738 N   0  0  0  0  0  0  0  0  0  0  0  0
   -0.8259    2.4999   -0.1385 C   0  0  1  0  0  0  0  0  0  0  0  0
   -1.4647    1.8509    0.9984 C   0  0  0  0  0  0  0  0  0  0  0  0
   -1.1079    2.3250    2.3399 C   0  0  0  0  0  0  0  0  0  0  0  0
   -1.7671    3.4592    2.8006 C   0  0  0  0  0  0  0  0  0  0  0  0
   -1.5548    3.9817    4.0583 C   0  0  0  0  0  0  0  0  0  0  0  0
   -0.6704    3.3712    4.8868 C   0  0  0  0  0  0  0  0  0  0  0  0
    0.0184    2.2299    4.4768 C   0  0  0  0  0  0  0  0  0  0  0  0
   -0.2268    1.7360    3.1952 C   0  0  0  0  0  0  0  0  0  0  0  0
    0.6241    2.5622   -0.1698 C   0  0  0  0  0  0  0  0  0  0  0  0
    1.2425    1.8226    0.6793 O   0  0  0  0  0  0  0  0  0  0  0  0
    1.4553    3.3299   -0.9983 N   0  0  0  0  0  0  0  0  0  0  0  0
    2.9332    3.1867   -0.8927 C   0  0  0  0  0  0  0  0  0  0  0  0
    3.2801    3.1636   -2.3888 C   0  0  0  0  0  0  0  0  0  0  0  0
    2.1428    3.7588   -3.1260 C   0  0  0  0  0  0  0  0  0  0  0  0
    1.3078    4.3549   -1.9800 C   0  0  1  0  0  0  0  0  0  0  0  0
   -0.0195    4.7628   -2.3828 C   0  0  0  0  0  0  0  0  0  0  0  0
   -0.8272    4.1783   -3.1235 O   0  0  0  0  0  0  0  0  0  0  0  0
   -0.4925    6.0288   -1.8532 N   0  0  0  0  0  0  0  0  0  0  0  0
   -1.7680    6.5776   -2.1074 C   0  0  0  0  0  0  0  0  0  0  0  0
   -2.0621    6.7741   -3.5389 C   0  0  0  0  0  0  0  0  0  0  0  0
   -1.2699    6.4307   -4.4677 O   0  0  0  0  0  0  0  0  0  0  0  0
   -3.3177    7.3869   -3.8272 N   0  0  0  0  0  0  0  0  0  0  0  0
   -3.8523    7.6814   -5.1065 C   0  0  1  0  0  0  0  0  0  0  0  0
   -5.2486    7.0939   -5.2370 C   0  0  0  0  0  0  0  0  0  0  0  0
   -3.7894    9.0525   -5.5801 C   0  0  0  0  0  0  0  0  0  0  0  0
   -4.5516    9.3298   -6.5918 O   0  0  0  0  0  0  0  0  0  0  0  0
   -3.0314   10.1539   -5.1367 N   0  0  0  0  0  0  0  0  0  0  0  0
   -3.2290   11.4578   -5.8170 C   0  0  0  0  0  0  0  0  0  0  0  0
   -1.8599   12.0141   -5.9307 C   0  0  0  0  0  0  0  0  0  0  0  0
   -1.0231   11.2641   -4.9488 C   0  0  0  0  0  0  0  0  0  0  0  0
   -2.0122   10.3735   -4.2052 C   0  0  1  0  0  0  0  0  0  0  0  0
   -2.2809   11.0077   -2.9213 C   0  0  0  0  0  0  0  0  0  0  0  0
   -2.2706   10.2397   -1.8873 O   0  0  0  0  0  0  0  0  0  0  0  0
   -2.5414   12.3623   -2.6710 N   0  0  0  0  0  0  0  0  0  0  0  0
   -2.7794   12.9953   -1.4227 C   0  0  1  0  0  0  0  0  0  0  0  0
   -3.8066   12.2769   -0.5655 C   0  0  0  0  0  0  0  0  0  0  0  0
   -5.1313   12.2245   -1.2008 C   0  0  0  0  0  0  0  0  0  0  0  0
   -5.9773   13.3082   -0.9458 C   0  0  0  0  0  0  0  0  0  0  0  0
   -7.2352   13.3695   -1.4737 C   0  0  0  0  0  0  0  0  0  0  0  0
   -7.7339   12.3731   -2.2804 C   0  0  0  0  0  0  0  0  0  0  0  0
   -6.9024   11.3106   -2.5291 C   0  0  0  0  0  0  0  0  0  0  0  0
   -5.6133   11.2389   -1.9932 C   0  0  0  0  0  0  0  0  0  0  0  0
   -1.5996   13.2860   -0.6160 C   0  0  0  0  0  0  0  0  0  0  0  0
   -1.6899   13.9837    0.4490 O   0  0  0  0  0  0  0  0  0  0  0  0
   -0.3319   12.7864   -1.0197 N   0  0  0  0  0  0  0  0  0  0  0  0
    0.8356   13.1009   -0.2268 C   0  0  0  0  0  0  0  0  0  0  0  0
    2.0792   12.5035   -0.7157 C   0  0  0  0  0  0  0  0  0  0  0  0
    3.1375   12.7963   -0.0764 O   0  0  0  0  0  0  0  0  0  0  0  0
    2.1881   11.6400   -1.8231 N   0  0  0  0  0  0  0  0  0  0  0  0
    3.5473   11.1567   -2.1285 C   0  0  1  0  0  0  0  0  0  0  0  0
    3.5851    9.7548   -1.5102 C   0  0  0  0  0  0  0  0  0  0  0  0
    3.3236    9.8047   -0.0238 C   0  0  0  0  0  0  0  0  0  0  0  0
    3.3598    8.3973    0.4960 C   0  0  0  0  0  0  0  0  0  0  0  0
    3.0332    8.2101    1.8575 N   0  0  0  0  0  0  0  0  0  0  0  0
    3.6745    7.4429   -0.2751 O   0  0  0  0  0  0  0  0  0  0  0  0
    3.6833   11.0566   -3.6054 C   0  0  0  0  0  0  0  0  0  0  0  0
    2.5558   11.1987   -4.2129 O   0  0  0  0  0  0  0  0  0  0  0  0
    4.8897   10.8304   -4.2476 N   0  0  0  0  0  0  0  0  0  0  0  0
    6.1719   10.8164   -3.4791 C   0  0  0  0  0  0  0  0  0  0  0  0
    6.7303    9.4952   -3.9295 C   0  0  0  0  0  0  0  0  0  0  0  0
    6.1404    9.2569   -5.3210 C   0  0  0  0  0  0  0  0  0  0  0  0
    5.3565   10.5132   -5.5602 C   0  0  1  0  0  0  0  0  0  0  0  0
    4.4177   10.5037   -6.6536 C   0  0  0  0  0  0  0  0  0  0  0  0
    3.3235   11.1399   -6.5195 O   0  0  0  0  0  0  0  0  0  0  0  0
    4.5897    9.8382   -7.9034 N   0  0  0  0  0  0  0  0  0  0  0  0
    5.6702    9.0178   -8.3735 C   0  0  0  0  0  0  0  0  0  0  0  0
    5.2699    8.5536   -9.7223 C   0  0  0  0  0  0  0  0  0  0  0  0
    4.3705    9.6483  -10.2234 C   0  0  0  0  0  0  0  0  0  0  0  0
    3.5868    9.9348   -8.9596 C   0  0  1  0  0  0  0  0  0  0  0  0
    2.4404    9.0608   -8.7430 C   0  0  0  0  0  0  0  0  0  0  0  0
    2.4109    8.3961   -7.6666 O   0  0  0  0  0  0  0  0  0  0  0  0
    1.3909    8.9366   -9.6797 N   0  0  0  0  0  0  0  0  0  0  0  0
    0.3142    8.0152   -9.3075 C   0  0  1  0  0  0  0  0  0  0  0  0
   -0.9933    8.7571   -9.3718 C   0  0  0  0  0  0  0  0  0  0  0  0
    0.2647    6.9515  -10.3526 C   0  0  0  0  0  0  0  0  0  0  0  0
    0.8593    7.0470  -11.4532 O   0  0  0  0  0  0  0  0  0  0  0  0
   -0.4734    5.8104  -10.0835 O   0  0  0  0  0  0  0  0  0  0  0  0
  1  2  1  0
  2  3  1  0
  2  4  1  0
  5  4  1  6
  5  6  1  0
  6  7  1  0
  7  8  2  0
  7  9  1  0
  9 10  1  6
 10 11  1  0
 11 12  2  0
 13 11  1  1
 13 14  1  0
 14 15  1  0
 15 16  1  0
 16 17  1  0
  9 18  1  0
 18 19  1  0
 18 20  1  0
  5 21  1  0
 21 22  2  0
 21 23  1  0
 23 24  1  0
 24 25  1  1
 25 26  1  0
 26 27  2  0
 27 28  1  0
 28 29  2  0
 29 30  1  0
 30 31  2  0
 24 32  1  0
 32 33  2  0
 32 34  1  0
 34 35  1  0
 35 36  1  0
 36 37  1  0
 37 38  1  0
 38 39  1  6
 39 40  2  0
 39 41  1  0
 41 42  1  0
 42 43  1  0
 43 44  2  0
 43 45  1  0
 45 46  1  0
 46 47  1  1
 46 48  1  0
 48 49  2  0
 48 50  1  0
 50 51  1  0
 51 52  1  0
 52 53  1  0
 53 54  1  0
 54 55  1  1
 55 56  2  0
 55 57  1  0
 57 58  1  0
 58 59  1  1
 59 60  1  0
 60 61  2  0
 61 62  1  0
 62 63  2  0
 63 64  1  0
 64 65  2  0
 58 66  1  0
 66 67  2  0
 66 68  1  0
 68 69  1  0
 69 70  1  0
 70 71  2  0
 70 72  1  0
 72 73  1  0
 73 74  1  1
 74 75  1  0
 75 76  1  0
 76 77  1  0
 76 78  2  0
 73 79  1  0
 79 80  2  0
 79 81  1  0
 81 82  1  0
 82 83  1  0
 83 84  1  0
 84 85  1  0
 85 86  1  6
 86 87  2  0
 86 88  1  0
 88 89  1  0
 89 90  1  0
 90 91  1  0
 91 92  1  0
 92 93  1  1
 93 94  2  0
 93 95  1  0
 95 96  1  0
 96 97  1  6
 96 98  1  0
 98 99  2  0
 98100  1  0
 17 13  1  0
 31 26  1  0
 38 34  1  0
 54 50  1  0
 65 60  1  0
 85 81  1  0
 92 88  1  0
M  CHG  2  17   1 100  -1
M  END
>  <shape_align_shape_tanimoto>  (3) 
0.36721288821965897

>  <shape_align_color_tanimoto>  (3) 
0.03476410813599605

>  <metric>  (3) 
combo

>  <metric_score>  (3) 
0.201

>  <template_pid>  (3) 
4U0B

>  <template_shape_score>  (3) 
0.367

>  <template_color_score>  (3) 
0.035

>  <template_combo_score>  (3) 
0.201

$$$$
