1HLF_shape_pose
     RDKit          3D

 17 18  0  0  0  0  0  0  0  0999 V2000
   31.7739   23.3417   28.7901 O   0  0  0  0  0  0  0  0  0  0  0  0
   33.0515   23.3276   28.8241 C   0  0  0  0  0  0  0  0  0  0  0  0
   33.7406   24.1830   29.7612 N   0  0  0  0  0  0  0  0  0  0  0  0
   35.1105   23.8339   29.6799 C   0  0  0  0  0  0  0  0  0  0  0  0
   36.2993   24.5327   30.5595 S   0  0  0  0  0  0  0  0  0  0  0  0
   35.2687   22.7948   28.7231 N   0  0  0  0  0  0  0  0  0  0  0  0
   34.0027   22.5502   28.0329 C   0  0  1  0  0  0  0  0  0  0  0  0
   33.7952   21.2012   27.9752 O   0  0  0  0  0  0  0  0  0  0  0  0
   32.6480   20.8613   27.2923 C   0  0  2  0  0  0  0  0  0  0  0  0
   32.5159   19.3597   27.1825 C   0  0  0  0  0  0  0  0  0  0  0  0
   32.4535   18.7139   28.4010 O   0  0  0  0  0  0  0  0  0  0  0  0
   32.5394   21.4130   25.9067 C   0  0  1  0  0  0  0  0  0  0  0  0
   31.1748   21.3250   25.5472 O   0  0  0  0  0  0  0  0  0  0  0  0
   32.8976   22.8735   25.8725 C   0  0  2  0  0  0  0  0  0  0  0  0
   33.1498   23.3088   24.5654 O   0  0  0  0  0  0  0  0  0  0  0  0
   34.1944   23.0727   26.6268 C   0  0  1  0  0  0  0  0  0  0  0  0
   34.5096   24.4225   26.6013 O   0  0  0  0  0  0  0  0  0  0  0  0
  1  2  2  0
  2  3  1  0
  3  4  1  0
  4  5  2  0
  4  6  1  0
  7  6  1  1
  7  8  1  0
  8  9  1  0
  9 10  1  6
 10 11  1  0
  9 12  1  0
 12 13  1  1
 12 14  1  0
 14 15  1  6
 14 16  1  0
 16 17  1  1
  7  2  1  0
 16  7  1  0
M  END
>  <shape_align_shape_tanimoto>  (1) 
0.5925431652814801

>  <shape_align_color_tanimoto>  (1) 
0.049716326578072907

>  <metric>  (1) 
shape

>  <metric_score>  (1) 
0.593

>  <template_pid>  (1) 
1HLF

>  <template_shape_score>  (1) 
0.593

>  <template_color_score>  (1) 
0.050

>  <template_combo_score>  (1) 
0.321

$$$$
1HLF_color_pose
     RDKit          3D

 17 18  0  0  0  0  0  0  0  0999 V2000
   33.1577   23.4256   25.2702 O   0  0  0  0  0  0  0  0  0  0  0  0
   33.2418   22.5073   26.1259 C   0  0  0  0  0  0  0  0  0  0  0  0
   32.9906   21.1140   25.8978 N   0  0  0  0  0  0  0  0  0  0  0  0
   32.6181   20.5501   27.1682 C   0  0  0  0  0  0  0  0  0  0  0  0
   32.2269   19.0033   27.4796 S   0  0  0  0  0  0  0  0  0  0  0  0
   32.6605   21.6347   28.1159 N   0  0  0  0  0  0  0  0  0  0  0  0
   33.6159   22.6111   27.5750 C   0  0  1  0  0  0  0  0  0  0  0  0
   34.9016   22.2144   27.6905 O   0  0  0  0  0  0  0  0  0  0  0  0
   35.6075   22.5017   28.8140 C   0  0  2  0  0  0  0  0  0  0  0  0
   35.8014   21.1706   29.5600 C   0  0  0  0  0  0  0  0  0  0  0  0
   34.5320   20.6900   29.8454 O   0  0  0  0  0  0  0  0  0  0  0  0
   35.0474   23.4765   29.7633 C   0  0  1  0  0  0  0  0  0  0  0  0
   36.1074   24.2613   30.2735 O   0  0  0  0  0  0  0  0  0  0  0  0
   34.0145   24.4157   29.2823 C   0  0  2  0  0  0  0  0  0  0  0  0
   32.9995   24.6171   30.2446 O   0  0  0  0  0  0  0  0  0  0  0  0
   33.3265   24.0133   28.0072 C   0  0  1  0  0  0  0  0  0  0  0  0
   33.7250   24.8442   26.9350 O   0  0  0  0  0  0  0  0  0  0  0  0
  1  2  2  0
  2  3  1  0
  3  4  1  0
  4  5  2  0
  4  6  1  0
  7  6  1  1
  7  8  1  0
  8  9  1  0
  9 10  1  1
 10 11  1  0
  9 12  1  0
 12 13  1  6
 12 14  1  0
 14 15  1  1
 14 16  1  0
 16 17  1  6
  7  2  1  0
 16  7  1  0
M  END
>  <shape_align_shape_tanimoto>  (2) 
0.49018130817725686

>  <shape_align_color_tanimoto>  (2) 
0.11872827203564847

>  <metric>  (2) 
color

>  <metric_score>  (2) 
0.119

>  <template_pid>  (2) 
1HLF

>  <template_shape_score>  (2) 
0.490

>  <template_color_score>  (2) 
0.119

>  <template_combo_score>  (2) 
0.304

$$$$
1HLF_combo_pose
     RDKit          3D

 17 18  0  0  0  0  0  0  0  0999 V2000
   32.2810   24.2857   30.1694 O   0  0  0  0  0  0  0  0  0  0  0  0
   33.4793   23.9965   29.8728 C   0  0  0  0  0  0  0  0  0  0  0  0
   34.5954   23.9413   30.7685 N   0  0  0  0  0  0  0  0  0  0  0  0
   35.8144   24.0549   30.0114 C   0  0  0  0  0  0  0  0  0  0  0  0
   37.3478   24.0479   30.5548 S   0  0  0  0  0  0  0  0  0  0  0  0
   35.3871   24.1776   28.6553 N   0  0  0  0  0  0  0  0  0  0  0  0
   34.0431   23.6422   28.5387 C   0  0  1  0  0  0  0  0  0  0  0  0
   34.0936   22.2599   28.4817 O   0  0  0  0  0  0  0  0  0  0  0  0
   33.0752   21.7506   27.6882 C   0  0  2  0  0  0  0  0  0  0  0  0
   32.9217   20.2539   27.9335 C   0  0  0  0  0  0  0  0  0  0  0  0
   31.8795   19.7926   27.1059 O   0  0  0  0  0  0  0  0  0  0  0  0
   33.4321   22.0340   26.2536 C   0  0  1  0  0  0  0  0  0  0  0  0
   32.4248   21.6277   25.3886 O   0  0  0  0  0  0  0  0  0  0  0  0
   33.6974   23.5168   26.1248 C   0  0  2  0  0  0  0  0  0  0  0  0
   35.0644   23.7076   25.9235 O   0  0  0  0  0  0  0  0  0  0  0  0
   33.3584   24.2803   27.3914 C   0  0  1  0  0  0  0  0  0  0  0  0
   32.0124   24.5036   27.5621 O   0  0  0  0  0  0  0  0  0  0  0  0
  1  2  2  0
  2  3  1  0
  3  4  1  0
  4  5  2  0
  4  6  1  0
  7  6  1  1
  7  8  1  0
  8  9  1  0
  9 10  1  6
 10 11  1  0
  9 12  1  0
 12 13  1  6
 12 14  1  0
 14 15  1  1
 14 16  1  0
 16 17  1  1
  7  2  1  0
 16  7  1  0
M  END
>  <shape_align_shape_tanimoto>  (3) 
0.56965537653180942

>  <shape_align_color_tanimoto>  (3) 
0.10266957108816192

>  <metric>  (3) 
combo

>  <metric_score>  (3) 
0.336

>  <template_pid>  (3) 
1HLF

>  <template_shape_score>  (3) 
0.570

>  <template_color_score>  (3) 
0.103

>  <template_combo_score>  (3) 
0.336

$$$$
