4PP9_shape_pose
     RDKit          3D

 26 29  0  0  0  0  0  0  0  0999 V2000
   -9.6325  -20.3651  -35.0872 N   0  0  0  0  0  0  0  0  0  0  0  0
   -8.6596  -19.9985  -35.5931 C   0  0  0  0  0  0  0  0  0  0  0  0
   -7.4637  -19.5575  -36.2375 C   0  0  0  0  0  0  0  0  0  0  0  0
   -6.2331  -20.1899  -36.0508 C   0  0  0  0  0  0  0  0  0  0  0  0
   -5.1189  -19.7006  -36.7126 C   0  0  0  0  0  0  0  0  0  0  0  0
   -5.1735  -18.6088  -37.5531 C   0  0  0  0  0  0  0  0  0  0  0  0
   -6.4243  -18.0030  -37.7138 C   0  0  0  0  0  0  0  0  0  0  0  0
   -6.5178  -16.8254  -38.6116 C   0  0  0  0  0  0  0  0  0  0  0  0
   -6.2864  -15.5828  -37.8725 N   0  0  0  0  0  0  0  0  0  0  0  0
   -7.2995  -14.9052  -37.2961 C   0  0  0  0  0  0  0  0  0  0  0  0
   -6.7691  -13.7870  -36.6801 C   0  0  0  0  0  0  0  0  0  0  0  0
   -7.4992  -12.7950  -35.9508 N   0  0  0  0  0  0  0  0  0  0  0  0
   -7.9951  -11.6753  -36.6891 C   0  0  0  0  0  0  0  0  0  0  0  0
   -7.7889  -11.5826  -37.9269 O   0  0  0  0  0  0  0  0  0  0  0  0
   -8.7458  -10.6478  -35.9595 C   0  0  0  0  0  0  0  0  0  0  0  0
   -9.0404  -10.6185  -34.6384 N   0  0  0  0  0  0  0  0  0  0  0  0
   -9.7362   -9.5330  -34.3311 N   0  0  0  0  0  0  0  0  0  0  0  0
   -9.9025   -8.8285  -35.4891 C   0  0  0  0  0  0  0  0  0  0  0  0
  -10.5576   -7.6160  -35.7267 C   0  0  0  0  0  0  0  0  0  0  0  0
  -10.5755   -7.1172  -37.0218 C   0  0  0  0  0  0  0  0  0  0  0  0
   -9.9725   -7.7733  -38.0760 C   0  0  0  0  0  0  0  0  0  0  0  0
   -9.3246   -8.9830  -37.8118 C   0  0  0  0  0  0  0  0  0  0  0  0
   -9.2888   -9.5106  -36.5223 C   0  0  0  0  0  0  0  0  0  0  0  0
   -5.4109  -13.8454  -36.9232 C   0  0  0  0  0  0  0  0  0  0  0  0
   -5.1411  -14.9558  -37.6562 N   0  0  0  0  0  0  0  0  0  0  0  0
   -7.5501  -18.4571  -37.0767 C   0  0  0  0  0  0  0  0  0  0  0  0
  1  2  3  0
  2  3  1  0
  3  4  2  0
  4  5  1  0
  5  6  2  0
  6  7  1  0
  7  8  1  0
  8  9  1  0
  9 10  1  0
 10 11  2  0
 11 12  1  0
 12 13  1  0
 13 14  2  0
 13 15  1  0
 15 16  2  0
 16 17  1  0
 17 18  1  0
 18 19  2  0
 19 20  1  0
 20 21  2  0
 21 22  1  0
 22 23  2  0
 11 24  1  0
 24 25  2  0
  7 26  2  0
 26  3  1  0
 25  9  1  0
 23 15  1  0
 23 18  1  0
M  END
>  <shape_align_shape_tanimoto>  (1) 
0.77206490474573397

>  <shape_align_color_tanimoto>  (1) 
0.01284871291780223

>  <metric>  (1) 
shape

>  <metric_score>  (1) 
0.772

>  <template_pid>  (1) 
4PP9

>  <template_shape_score>  (1) 
0.772

>  <template_color_score>  (1) 
0.013

>  <template_combo_score>  (1) 
0.392

$$$$
4PP9_color_pose
     RDKit          3D

 26 29  0  0  0  0  0  0  0  0999 V2000
  -11.3402  -19.2619  -33.7755 N   0  0  0  0  0  0  0  0  0  0  0  0
  -10.3420  -19.5790  -34.3059 C   0  0  0  0  0  0  0  0  0  0  0  0
   -9.1277  -19.9662  -34.9730 C   0  0  0  0  0  0  0  0  0  0  0  0
   -8.2964  -20.9495  -34.4746 C   0  0  0  0  0  0  0  0  0  0  0  0
   -7.1285  -21.3316  -35.1032 C   0  0  0  0  0  0  0  0  0  0  0  0
   -6.7540  -20.7146  -36.2883 C   0  0  0  0  0  0  0  0  0  0  0  0
   -7.5661  -19.7254  -36.8133 C   0  0  0  0  0  0  0  0  0  0  0  0
   -7.2265  -19.0194  -38.0826 C   0  0  0  0  0  0  0  0  0  0  0  0
   -6.4162  -17.8258  -37.8305 N   0  0  0  0  0  0  0  0  0  0  0  0
   -6.8959  -16.5714  -37.6028 C   0  0  0  0  0  0  0  0  0  0  0  0
   -5.8426  -15.7120  -37.4081 C   0  0  0  0  0  0  0  0  0  0  0  0
   -5.8997  -14.3203  -37.1422 N   0  0  0  0  0  0  0  0  0  0  0  0
   -7.0753  -13.5679  -37.0305 C   0  0  0  0  0  0  0  0  0  0  0  0
   -8.2026  -14.1060  -37.1654 O   0  0  0  0  0  0  0  0  0  0  0  0
   -7.0094  -12.1209  -36.7505 C   0  0  0  0  0  0  0  0  0  0  0  0
   -5.9068  -11.4103  -36.5832 N   0  0  0  0  0  0  0  0  0  0  0  0
   -6.2345  -10.1503  -36.3501 N   0  0  0  0  0  0  0  0  0  0  0  0
   -7.5766  -10.0156  -36.3617 C   0  0  0  0  0  0  0  0  0  0  0  0
   -8.4450   -8.9709  -36.1851 C   0  0  0  0  0  0  0  0  0  0  0  0
   -9.8293   -9.1398  -36.2561 C   0  0  0  0  0  0  0  0  0  0  0  0
  -10.3458  -10.3987  -36.5125 C   0  0  0  0  0  0  0  0  0  0  0  0
   -9.4621  -11.4422  -36.6884 C   0  0  0  0  0  0  0  0  0  0  0  0
   -8.0831  -11.2633  -36.6156 C   0  0  0  0  0  0  0  0  0  0  0  0
   -4.7097  -16.4728  -37.5227 C   0  0  0  0  0  0  0  0  0  0  0  0
   -5.0922  -17.7413  -37.7772 N   0  0  0  0  0  0  0  0  0  0  0  0
   -8.7355  -19.3616  -36.1587 C   0  0  0  0  0  0  0  0  0  0  0  0
  1  2  3  0
  2  3  1  0
  3  4  2  0
  4  5  1  0
  5  6  2  0
  6  7  1  0
  7  8  1  0
  8  9  1  0
  9 10  1  0
 10 11  2  0
 11 12  1  0
 12 13  1  0
 13 14  2  0
 13 15  1  0
 15 16  2  0
 16 17  1  0
 17 18  1  0
 18 19  2  0
 19 20  1  0
 20 21  2  0
 21 22  1  0
 22 23  2  0
 11 24  1  0
 24 25  2  0
  7 26  2  0
 26  3  1  0
 25  9  1  0
 23 15  1  0
 23 18  1  0
M  END
>  <shape_align_shape_tanimoto>  (2) 
0.64345399153268379

>  <shape_align_color_tanimoto>  (2) 
0.069152317598892843

>  <metric>  (2) 
color

>  <metric_score>  (2) 
0.069

>  <template_pid>  (2) 
4PP9

>  <template_shape_score>  (2) 
0.643

>  <template_color_score>  (2) 
0.069

>  <template_combo_score>  (2) 
0.356

$$$$
4PP9_combo_pose
     RDKit          3D

 26 29  0  0  0  0  0  0  0  0999 V2000
   -9.6325  -20.3651  -35.0872 N   0  0  0  0  0  0  0  0  0  0  0  0
   -8.6596  -19.9985  -35.5931 C   0  0  0  0  0  0  0  0  0  0  0  0
   -7.4637  -19.5575  -36.2375 C   0  0  0  0  0  0  0  0  0  0  0  0
   -6.2331  -20.1899  -36.0508 C   0  0  0  0  0  0  0  0  0  0  0  0
   -5.1189  -19.7006  -36.7126 C   0  0  0  0  0  0  0  0  0  0  0  0
   -5.1735  -18.6088  -37.5531 C   0  0  0  0  0  0  0  0  0  0  0  0
   -6.4243  -18.0030  -37.7138 C   0  0  0  0  0  0  0  0  0  0  0  0
   -6.5178  -16.8254  -38.6116 C   0  0  0  0  0  0  0  0  0  0  0  0
   -6.2864  -15.5828  -37.8725 N   0  0  0  0  0  0  0  0  0  0  0  0
   -7.2995  -14.9052  -37.2961 C   0  0  0  0  0  0  0  0  0  0  0  0
   -6.7691  -13.7870  -36.6801 C   0  0  0  0  0  0  0  0  0  0  0  0
   -7.4992  -12.7950  -35.9508 N   0  0  0  0  0  0  0  0  0  0  0  0
   -7.9951  -11.6753  -36.6891 C   0  0  0  0  0  0  0  0  0  0  0  0
   -7.7889  -11.5826  -37.9269 O   0  0  0  0  0  0  0  0  0  0  0  0
   -8.7458  -10.6478  -35.9595 C   0  0  0  0  0  0  0  0  0  0  0  0
   -9.0404  -10.6185  -34.6384 N   0  0  0  0  0  0  0  0  0  0  0  0
   -9.7362   -9.5330  -34.3311 N   0  0  0  0  0  0  0  0  0  0  0  0
   -9.9025   -8.8285  -35.4891 C   0  0  0  0  0  0  0  0  0  0  0  0
  -10.5576   -7.6160  -35.7267 C   0  0  0  0  0  0  0  0  0  0  0  0
  -10.5755   -7.1172  -37.0218 C   0  0  0  0  0  0  0  0  0  0  0  0
   -9.9725   -7.7733  -38.0760 C   0  0  0  0  0  0  0  0  0  0  0  0
   -9.3246   -8.9830  -37.8118 C   0  0  0  0  0  0  0  0  0  0  0  0
   -9.2888   -9.5106  -36.5223 C   0  0  0  0  0  0  0  0  0  0  0  0
   -5.4109  -13.8454  -36.9232 C   0  0  0  0  0  0  0  0  0  0  0  0
   -5.1411  -14.9558  -37.6562 N   0  0  0  0  0  0  0  0  0  0  0  0
   -7.5501  -18.4571  -37.0767 C   0  0  0  0  0  0  0  0  0  0  0  0
  1  2  3  0
  2  3  1  0
  3  4  2  0
  4  5  1  0
  5  6  2  0
  6  7  1  0
  7  8  1  0
  8  9  1  0
  9 10  1  0
 10 11  2  0
 11 12  1  0
 12 13  1  0
 13 14  2  0
 13 15  1  0
 15 16  2  0
 16 17  1  0
 17 18  1  0
 18 19  2  0
 19 20  1  0
 20 21  2  0
 21 22  1  0
 22 23  2  0
 11 24  1  0
 24 25  2  0
  7 26  2  0
 26  3  1  0
 25  9  1  0
 23 15  1  0
 23 18  1  0
M  END
>  <shape_align_shape_tanimoto>  (3) 
0.77206490474573397

>  <shape_align_color_tanimoto>  (3) 
0.01284871291780223

>  <metric>  (3) 
combo

>  <metric_score>  (3) 
0.392

>  <template_pid>  (3) 
4PP9

>  <template_shape_score>  (3) 
0.772

>  <template_color_score>  (3) 
0.013

>  <template_combo_score>  (3) 
0.392

$$$$
