4L7F_shape_pose
     RDKit          3D

 34 39  0  0  0  0  0  0  0  0999 V2000
   10.7654  -10.1988   36.3229 O   0  0  0  0  0  0  0  0  0  0  0  0
   10.2905   -9.4103   37.1520 C   0  0  0  0  0  0  0  0  0  0  0  0
   11.0884   -9.0514   38.2739 N   0  0  0  0  0  0  0  0  0  0  0  0
   12.4102   -9.6413   38.3627 C   0  0  0  0  0  0  0  0  0  0  0  0
   13.2007   -9.5049   37.1031 C   0  0  0  0  0  0  0  0  0  0  0  0
   13.1968   -8.3631   36.3528 C   0  0  0  0  0  0  0  0  0  0  0  0
   13.9465   -8.2679   35.1808 C   0  0  0  0  0  0  0  0  0  0  0  0
   14.7236   -9.3455   34.7449 C   0  0  0  0  0  0  0  0  0  0  0  0
   15.4566   -9.2584   33.6031 F   0  0  0  0  0  0  0  0  0  0  0  0
   14.7165  -10.4876   35.5116 C   0  0  0  0  0  0  0  0  0  0  0  0
   13.9682  -10.5748   36.6762 C   0  0  0  0  0  0  0  0  0  0  0  0
   13.2004   -9.2028   39.5970 C   0  0  0  0  0  0  0  0  0  0  0  0
   12.7635  -10.6027   39.4092 C   0  0  0  0  0  0  0  0  0  0  0  0
    8.9433   -8.8949   36.9329 C   0  0  0  0  0  0  0  0  0  0  0  0
    8.2852   -9.3309   35.7991 C   0  0  0  0  0  0  0  0  0  0  0  0
    6.9884   -8.8750   35.5274 C   0  0  0  0  0  0  0  0  0  0  0  0
    6.3469   -7.9876   36.3810 C   0  0  0  0  0  0  0  0  0  0  0  0
    5.1020   -7.5670   36.0943 N   0  0  0  0  0  0  0  0  0  0  0  0
    4.5065   -6.7068   36.9404 C   0  0  0  0  0  0  0  0  0  0  0  0
    3.1856   -6.2241   36.6903 N   0  0  0  0  0  0  0  0  0  0  0  0
    2.4686   -6.6608   35.5040 C   0  0  1  0  0  0  0  0  0  0  0  0
    3.1536   -6.2827   34.2373 C   0  0  0  0  0  0  0  0  0  0  0  0
    3.0421   -7.2296   33.0971 C   0  0  0  0  0  0  0  0  0  0  0  0
    3.1565   -8.6581   33.4796 C   0  0  2  0  0  0  0  0  0  0  0  0
    2.8599   -9.4285   32.3300 O   0  0  0  0  0  0  0  0  0  0  0  0
    2.1052   -8.9751   34.4860 C   0  0  0  0  0  0  0  0  0  0  0  0
    1.9976   -8.0659   35.6424 C   0  0  0  0  0  0  0  0  0  0  0  0
    5.2080   -6.3026   38.0589 C   0  0  0  0  0  0  0  0  0  0  0  0
    4.8305   -5.4535   39.0488 N   0  0  0  0  0  0  0  0  0  0  0  0
    5.8036   -5.3322   39.9446 C   0  0  0  0  0  0  0  0  0  0  0  0
    6.8347   -6.1388   39.4983 C   0  0  0  0  0  0  0  0  0  0  0  0
    6.4534   -6.7248   38.3437 N   0  0  0  0  0  0  0  0  0  0  0  0
    7.0486   -7.5844   37.4980 C   0  0  0  0  0  0  0  0  0  0  0  0
    8.3223   -8.0128   37.7938 C   0  0  0  0  0  0  0  0  0  0  0  0
  1  2  2  0
  2  3  1  0
  3  4  1  0
  4  5  1  0
  5  6  2  0
  6  7  1  0
  7  8  2  0
  8  9  1  0
  8 10  1  0
 10 11  2  0
  4 12  1  0
 12 13  1  0
  2 14  1  0
 14 15  2  0
 15 16  1  0
 16 17  2  0
 17 18  1  0
 18 19  2  0
 19 20  1  0
 21 20  1  1
 21 22  1  0
 22 23  1  0
 23 24  1  0
 24 25  1  6
 24 26  1  0
 26 27  1  0
 19 28  1  0
 28 29  2  0
 29 30  1  0
 30 31  2  0
 31 32  1  0
 32 33  1  0
 33 34  2  0
 13  4  1  0
 34 14  1  0
 11  5  1  0
 33 17  1  0
 27 21  1  0
 32 28  1  0
M  END
>  <shape_align_shape_tanimoto>  (1) 
0.57623884439371109

>  <shape_align_color_tanimoto>  (1) 
0.044979028895058025

>  <metric>  (1) 
shape

>  <metric_score>  (1) 
0.576

>  <template_pid>  (1) 
4L7F

>  <template_shape_score>  (1) 
0.576

>  <template_color_score>  (1) 
0.045

>  <template_combo_score>  (1) 
0.311

$$$$
4L7F_color_pose
     RDKit          3D

 34 39  0  0  0  0  0  0  0  0999 V2000
   12.2371  -10.2765   37.0501 O   0  0  0  0  0  0  0  0  0  0  0  0
   11.5444   -9.4517   37.7082 C   0  0  0  0  0  0  0  0  0  0  0  0
   12.0624   -8.7940   38.8395 N   0  0  0  0  0  0  0  0  0  0  0  0
   13.3707   -8.9365   39.3963 C   0  0  0  0  0  0  0  0  0  0  0  0
   13.7254   -7.8369   40.3708 C   0  0  0  0  0  0  0  0  0  0  0  0
   12.7783   -7.6200   41.3664 C   0  0  0  0  0  0  0  0  0  0  0  0
   13.0344   -6.6254   42.2927 C   0  0  0  0  0  0  0  0  0  0  0  0
   14.1978   -5.8871   42.2103 C   0  0  0  0  0  0  0  0  0  0  0  0
   14.3917   -4.9294   43.1442 F   0  0  0  0  0  0  0  0  0  0  0  0
   15.1345   -6.1152   41.2101 C   0  0  0  0  0  0  0  0  0  0  0  0
   14.8864   -7.1154   40.2710 C   0  0  0  0  0  0  0  0  0  0  0  0
   13.8381  -10.2719   39.8667 C   0  0  0  0  0  0  0  0  0  0  0  0
   14.4716   -9.6125   38.6820 C   0  0  0  0  0  0  0  0  0  0  0  0
   10.1794   -9.2431   37.2004 C   0  0  0  0  0  0  0  0  0  0  0  0
    9.7720   -9.9402   36.0821 C   0  0  0  0  0  0  0  0  0  0  0  0
    8.4872   -9.7884   35.5474 C   0  0  0  0  0  0  0  0  0  0  0  0
    7.6210   -8.9231   36.1584 C   0  0  0  0  0  0  0  0  0  0  0  0
    6.3946   -8.7752   35.6513 N   0  0  0  0  0  0  0  0  0  0  0  0
    5.4562   -7.9358   36.1877 C   0  0  0  0  0  0  0  0  0  0  0  0
    4.1872   -7.8693   35.6009 N   0  0  0  0  0  0  0  0  0  0  0  0
    3.1008   -7.0053   35.9634 C   0  0  1  0  0  0  0  0  0  0  0  0
    3.2671   -5.5882   35.5315 C   0  0  0  0  0  0  0  0  0  0  0  0
    3.4855   -5.4317   34.0549 C   0  0  0  0  0  0  0  0  0  0  0  0
    2.9976   -6.5568   33.2196 C   0  0  2  0  0  0  0  0  0  0  0  0
    2.4527   -6.0648   32.0140 O   0  0  0  0  0  0  0  0  0  0  0  0
    2.0861   -7.5438   33.8179 C   0  0  0  0  0  0  0  0  0  0  0  0
    1.8270   -7.4720   35.2761 C   0  0  0  0  0  0  0  0  0  0  0  0
    5.8623   -7.2408   37.3039 C   0  0  0  0  0  0  0  0  0  0  0  0
    5.2314   -6.3588   38.0896 N   0  0  0  0  0  0  0  0  0  0  0  0
    6.0621   -5.9705   39.0661 C   0  0  0  0  0  0  0  0  0  0  0  0
    7.2595   -6.6183   38.9072 C   0  0  0  0  0  0  0  0  0  0  0  0
    7.1149   -7.3914   37.8224 N   0  0  0  0  0  0  0  0  0  0  0  0
    8.0098   -8.2261   37.2661 C   0  0  0  0  0  0  0  0  0  0  0  0
    9.2790   -8.3901   37.7763 C   0  0  0  0  0  0  0  0  0  0  0  0
  1  2  2  0
  2  3  1  0
  3  4  1  0
  4  5  1  0
  5  6  2  0
  6  7  1  0
  7  8  2  0
  8  9  1  0
  8 10  1  0
 10 11  2  0
  4 12  1  0
 12 13  1  0
  2 14  1  0
 14 15  2  0
 15 16  1  0
 16 17  2  0
 17 18  1  0
 18 19  2  0
 19 20  1  0
 21 20  1  6
 21 22  1  0
 22 23  1  0
 23 24  1  0
 24 25  1  6
 24 26  1  0
 26 27  1  0
 19 28  1  0
 28 29  2  0
 29 30  1  0
 30 31  2  0
 31 32  1  0
 32 33  1  0
 33 34  2  0
 13  4  1  0
 34 14  1  0
 11  5  1  0
 33 17  1  0
 27 21  1  0
 32 28  1  0
M  END
>  <shape_align_shape_tanimoto>  (2) 
0.54426303194005254

>  <shape_align_color_tanimoto>  (2) 
0.14616894409234613

>  <metric>  (2) 
color

>  <metric_score>  (2) 
0.146

>  <template_pid>  (2) 
4L7F

>  <template_shape_score>  (2) 
0.544

>  <template_color_score>  (2) 
0.146

>  <template_combo_score>  (2) 
0.345

$$$$
4L7F_combo_pose
     RDKit          3D

 34 39  0  0  0  0  0  0  0  0999 V2000
   12.2371  -10.2765   37.0501 O   0  0  0  0  0  0  0  0  0  0  0  0
   11.5444   -9.4517   37.7082 C   0  0  0  0  0  0  0  0  0  0  0  0
   12.0624   -8.7940   38.8395 N   0  0  0  0  0  0  0  0  0  0  0  0
   13.3707   -8.9365   39.3963 C   0  0  0  0  0  0  0  0  0  0  0  0
   13.7254   -7.8369   40.3708 C   0  0  0  0  0  0  0  0  0  0  0  0
   12.7783   -7.6200   41.3664 C   0  0  0  0  0  0  0  0  0  0  0  0
   13.0344   -6.6254   42.2927 C   0  0  0  0  0  0  0  0  0  0  0  0
   14.1978   -5.8871   42.2103 C   0  0  0  0  0  0  0  0  0  0  0  0
   14.3917   -4.9294   43.1442 F   0  0  0  0  0  0  0  0  0  0  0  0
   15.1345   -6.1152   41.2101 C   0  0  0  0  0  0  0  0  0  0  0  0
   14.8864   -7.1154   40.2710 C   0  0  0  0  0  0  0  0  0  0  0  0
   13.8381  -10.2719   39.8667 C   0  0  0  0  0  0  0  0  0  0  0  0
   14.4716   -9.6125   38.6820 C   0  0  0  0  0  0  0  0  0  0  0  0
   10.1794   -9.2431   37.2004 C   0  0  0  0  0  0  0  0  0  0  0  0
    9.7720   -9.9402   36.0821 C   0  0  0  0  0  0  0  0  0  0  0  0
    8.4872   -9.7884   35.5474 C   0  0  0  0  0  0  0  0  0  0  0  0
    7.6210   -8.9231   36.1584 C   0  0  0  0  0  0  0  0  0  0  0  0
    6.3946   -8.7752   35.6513 N   0  0  0  0  0  0  0  0  0  0  0  0
    5.4562   -7.9358   36.1877 C   0  0  0  0  0  0  0  0  0  0  0  0
    4.1872   -7.8693   35.6009 N   0  0  0  0  0  0  0  0  0  0  0  0
    3.1008   -7.0053   35.9634 C   0  0  1  0  0  0  0  0  0  0  0  0
    3.2671   -5.5882   35.5315 C   0  0  0  0  0  0  0  0  0  0  0  0
    3.4855   -5.4317   34.0549 C   0  0  0  0  0  0  0  0  0  0  0  0
    2.9976   -6.5568   33.2196 C   0  0  2  0  0  0  0  0  0  0  0  0
    2.4527   -6.0648   32.0140 O   0  0  0  0  0  0  0  0  0  0  0  0
    2.0861   -7.5438   33.8179 C   0  0  0  0  0  0  0  0  0  0  0  0
    1.8270   -7.4720   35.2761 C   0  0  0  0  0  0  0  0  0  0  0  0
    5.8623   -7.2408   37.3039 C   0  0  0  0  0  0  0  0  0  0  0  0
    5.2314   -6.3588   38.0896 N   0  0  0  0  0  0  0  0  0  0  0  0
    6.0621   -5.9705   39.0661 C   0  0  0  0  0  0  0  0  0  0  0  0
    7.2595   -6.6183   38.9072 C   0  0  0  0  0  0  0  0  0  0  0  0
    7.1149   -7.3914   37.8224 N   0  0  0  0  0  0  0  0  0  0  0  0
    8.0098   -8.2261   37.2661 C   0  0  0  0  0  0  0  0  0  0  0  0
    9.2790   -8.3901   37.7763 C   0  0  0  0  0  0  0  0  0  0  0  0
  1  2  2  0
  2  3  1  0
  3  4  1  0
  4  5  1  0
  5  6  2  0
  6  7  1  0
  7  8  2  0
  8  9  1  0
  8 10  1  0
 10 11  2  0
  4 12  1  0
 12 13  1  0
  2 14  1  0
 14 15  2  0
 15 16  1  0
 16 17  2  0
 17 18  1  0
 18 19  2  0
 19 20  1  0
 21 20  1  6
 21 22  1  0
 22 23  1  0
 23 24  1  0
 24 25  1  6
 24 26  1  0
 26 27  1  0
 19 28  1  0
 28 29  2  0
 29 30  1  0
 30 31  2  0
 31 32  1  0
 32 33  1  0
 33 34  2  0
 13  4  1  0
 34 14  1  0
 11  5  1  0
 33 17  1  0
 27 21  1  0
 32 28  1  0
M  END
>  <shape_align_shape_tanimoto>  (3) 
0.54426303194005254

>  <shape_align_color_tanimoto>  (3) 
0.14616894409234613

>  <metric>  (3) 
combo

>  <metric_score>  (3) 
0.345

>  <template_pid>  (3) 
4L7F

>  <template_shape_score>  (3) 
0.544

>  <template_color_score>  (3) 
0.146

>  <template_combo_score>  (3) 
0.345

$$$$
