1I41_shape_pose
     RDKit          3D

 27 27  0  0  0  0  0  0  0  0999 V2000
   67.4260   29.6124   64.0270 C   0  0  0  0  0  0  0  0  0  0  0  0
   68.6445   28.9010   63.5535 C   0  0  0  0  0  0  0  0  0  0  0  0
   69.8423   29.2862   64.0277 N   0  0  0  0  0  0  0  0  0  0  0  0
   70.9700   28.6569   63.6217 C   0  0  0  0  0  0  0  0  0  0  0  0
   70.9078   27.5932   62.6992 C   0  0  0  0  0  0  0  0  0  0  0  0
   72.2026   26.9253   62.4502 C   0  0  0  0  0  0  0  0  0  0  0  0
   72.5627   26.1212   63.4677 O   0  0  0  0  0  0  0  0  0  0  0  0
   71.6720   24.8856   64.0170 P   0  0  0  0  0  0  0  0  0  0  0  0
   72.2318   24.4281   65.3734 O   0  0  0  0  0  0  0  0  0  0  0  0
   70.0426   25.2766   64.3159 O   0  0  0  0  0  0  0  0  0  0  0  0
   71.6788   23.4811   63.0576 O   0  0  0  0  0  0  0  0  0  0  0  0
   69.6980   27.1787   62.1921 C   0  0  0  0  0  0  0  0  0  0  0  0
   69.6142   26.0943   61.1762 C   0  0  0  0  0  0  0  0  0  0  0  0
   70.1965   26.2801   59.9611 N   0  0  0  0  0  0  0  0  0  0  0  0
   70.3326   26.6604   58.8445 C   0  0  0  0  0  0  0  0  0  0  0  0
   69.2987   27.4619   58.2008 C   0  0  0  0  0  0  0  0  0  0  0  0
   68.1719   27.8533   58.7359 C   0  0  0  0  0  0  0  0  0  0  0  0
   67.1884   28.6652   57.9953 C   0  0  0  0  0  0  0  0  0  0  0  0
   67.6232   29.0723   56.3219 P   0  0  0  0  0  0  0  0  0  0  0  0
   67.5800   27.8564   55.4379 O   0  0  0  0  0  0  0  0  0  0  0  0
   69.1216   29.8059   56.1612 O   0  0  0  0  0  0  0  0  0  0  0  0
   66.4590   30.2083   55.7761 O   0  0  0  0  0  0  0  0  0  0  0  0
   71.5383   26.3559   58.0390 C   0  0  0  0  0  0  0  0  0  0  0  0
   71.6478   26.7788   56.8460 O   0  0  0  0  0  0  0  0  0  0  0  0
   72.6006   25.6109   58.5116 O   0  0  0  0  0  0  0  0  0  0  0  0
   68.5765   27.8597   62.6480 C   0  0  0  0  0  0  0  0  0  0  0  0
   67.2828   27.5293   62.2193 O   0  0  0  0  0  0  0  0  0  0  0  0
  1  2  1  0
  2  3  2  0
  3  4  1  0
  4  5  2  0
  5  6  1  0
  6  7  1  0
  7  8  1  0
  8  9  2  0
  8 10  1  0
  8 11  1  0
  5 12  1  0
 12 13  1  0
 13 14  1  0
 14 15  2  0
 15 16  1  0
 16 17  2  0
 17 18  1  0
 18 19  1  0
 19 20  2  0
 19 21  1  0
 19 22  1  0
 15 23  1  0
 23 24  2  0
 23 25  1  0
 12 26  2  0
 26 27  1  0
 26  2  1  0
M  END
>  <shape_align_shape_tanimoto>  (1) 
0.67386969493859383

>  <shape_align_color_tanimoto>  (1) 
0.044774259905506431

>  <metric>  (1) 
shape

>  <metric_score>  (1) 
0.674

>  <template_pid>  (1) 
1I41

>  <template_shape_score>  (1) 
0.674

>  <template_color_score>  (1) 
0.045

>  <template_combo_score>  (1) 
0.359

$$$$
1I41_color_pose
     RDKit          3D

 27 27  0  0  0  0  0  0  0  0999 V2000
   66.2868   28.2891   57.6163 C   0  0  0  0  0  0  0  0  0  0  0  0
   67.7088   27.8467   57.6500 C   0  0  0  0  0  0  0  0  0  0  0  0
   68.2478   27.2527   56.5760 N   0  0  0  0  0  0  0  0  0  0  0  0
   69.5370   26.8536   56.6095 C   0  0  0  0  0  0  0  0  0  0  0  0
   70.3370   27.0405   57.7377 C   0  0  0  0  0  0  0  0  0  0  0  0
   71.7225   26.6090   57.7701 C   0  0  0  0  0  0  0  0  0  0  0  0
   72.6832   27.5930   57.6445 O   0  0  0  0  0  0  0  0  0  0  0  0
   72.6088   28.4581   56.2324 P   0  0  0  0  0  0  0  0  0  0  0  0
   72.2440   27.6559   55.0252 O   0  0  0  0  0  0  0  0  0  0  0  0
   74.1732   29.0851   55.9276 O   0  0  0  0  0  0  0  0  0  0  0  0
   71.5697   29.8005   56.4190 O   0  0  0  0  0  0  0  0  0  0  0  0
   69.7932   27.6584   58.8679 C   0  0  0  0  0  0  0  0  0  0  0  0
   70.6416   27.8564   60.0633 C   0  0  0  0  0  0  0  0  0  0  0  0
   70.8878   26.7384   60.8461 N   0  0  0  0  0  0  0  0  0  0  0  0
   70.6585   26.4736   62.0669 C   0  0  0  0  0  0  0  0  0  0  0  0
   70.0137   27.4782   62.8862 C   0  0  0  0  0  0  0  0  0  0  0  0
   69.7144   27.3455   64.1650 C   0  0  0  0  0  0  0  0  0  0  0  0
   69.0485   28.4131   64.9685 C   0  0  0  0  0  0  0  0  0  0  0  0
   68.6999   29.9000   64.0108 P   0  0  0  0  0  0  0  0  0  0  0  0
   68.0579   30.9567   64.9130 O   0  0  0  0  0  0  0  0  0  0  0  0
   70.0895   30.5478   63.3292 O   0  0  0  0  0  0  0  0  0  0  0  0
   67.5471   29.5419   62.8299 O   0  0  0  0  0  0  0  0  0  0  0  0
   71.0727   25.1582   62.5395 C   0  0  0  0  0  0  0  0  0  0  0  0
   71.6387   24.3377   61.7267 O   0  0  0  0  0  0  0  0  0  0  0  0
   70.9154   24.6788   63.8213 O   0  0  0  0  0  0  0  0  0  0  0  0
   68.4708   28.0514   58.7918 C   0  0  0  0  0  0  0  0  0  0  0  0
   67.8813   28.6695   59.8848 O   0  0  0  0  0  0  0  0  0  0  0  0
  1  2  1  0
  2  3  2  0
  3  4  1  0
  4  5  2  0
  5  6  1  0
  6  7  1  0
  7  8  1  0
  8  9  2  0
  8 10  1  0
  8 11  1  0
  5 12  1  0
 12 13  1  0
 13 14  1  0
 14 15  2  0
 15 16  1  0
 16 17  2  0
 17 18  1  0
 18 19  1  0
 19 20  2  0
 19 21  1  0
 19 22  1  0
 15 23  1  0
 23 24  2  0
 23 25  1  0
 12 26  2  0
 26 27  1  0
 26  2  1  0
M  END
>  <shape_align_shape_tanimoto>  (2) 
0.56104115401205612

>  <shape_align_color_tanimoto>  (2) 
0.15734118373990885

>  <metric>  (2) 
color

>  <metric_score>  (2) 
0.157

>  <template_pid>  (2) 
1I41

>  <template_shape_score>  (2) 
0.561

>  <template_color_score>  (2) 
0.157

>  <template_combo_score>  (2) 
0.359

$$$$
1I41_combo_pose
     RDKit          3D

 27 27  0  0  0  0  0  0  0  0999 V2000
   66.6244   28.6697   58.1781 C   0  0  0  0  0  0  0  0  0  0  0  0
   67.9751   28.0302   58.0883 C   0  0  0  0  0  0  0  0  0  0  0  0
   68.3832   27.3398   57.0161 N   0  0  0  0  0  0  0  0  0  0  0  0
   69.5997   26.7787   56.9655 C   0  0  0  0  0  0  0  0  0  0  0  0
   70.5276   26.8498   57.9766 C   0  0  0  0  0  0  0  0  0  0  0  0
   71.8635   26.2774   57.9678 C   0  0  0  0  0  0  0  0  0  0  0  0
   72.1077   25.4237   56.9108 O   0  0  0  0  0  0  0  0  0  0  0  0
   71.1614   24.0584   56.8386 P   0  0  0  0  0  0  0  0  0  0  0  0
   70.6557   23.7687   55.4226 O   0  0  0  0  0  0  0  0  0  0  0  0
   69.8387   24.1903   57.8605 O   0  0  0  0  0  0  0  0  0  0  0  0
   72.0353   22.6639   57.2935 O   0  0  0  0  0  0  0  0  0  0  0  0
   70.1275   27.5676   59.1134 C   0  0  0  0  0  0  0  0  0  0  0  0
   71.0728   27.7015   60.2766 C   0  0  0  0  0  0  0  0  0  0  0  0
   71.1580   26.5982   61.0847 N   0  0  0  0  0  0  0  0  0  0  0  0
   70.8779   26.3522   62.2629 C   0  0  0  0  0  0  0  0  0  0  0  0
   70.3228   27.1767   63.3009 C   0  0  0  0  0  0  0  0  0  0  0  0
   69.9431   28.4194   63.2799 C   0  0  0  0  0  0  0  0  0  0  0  0
   69.3806   29.1134   64.4871 C   0  0  0  0  0  0  0  0  0  0  0  0
   67.6899   29.6640   64.1290 P   0  0  0  0  0  0  0  0  0  0  0  0
   67.0111   28.5521   63.3601 O   0  0  0  0  0  0  0  0  0  0  0  0
   66.8753   29.9276   65.5825 O   0  0  0  0  0  0  0  0  0  0  0  0
   67.7925   31.0827   63.2243 O   0  0  0  0  0  0  0  0  0  0  0  0
   71.1621   24.9338   62.6859 C   0  0  0  0  0  0  0  0  0  0  0  0
   71.6345   24.1027   61.8977 O   0  0  0  0  0  0  0  0  0  0  0  0
   70.9013   24.5105   63.9803 O   0  0  0  0  0  0  0  0  0  0  0  0
   68.8601   28.1438   59.1475 C   0  0  0  0  0  0  0  0  0  0  0  0
   68.4127   28.8646   60.2440 O   0  0  0  0  0  0  0  0  0  0  0  0
  1  2  1  0
  2  3  2  0
  3  4  1  0
  4  5  2  0
  5  6  1  0
  6  7  1  0
  7  8  1  0
  8  9  2  0
  8 10  1  0
  8 11  1  0
  5 12  1  0
 12 13  1  0
 13 14  1  0
 14 15  2  0
 15 16  1  0
 16 17  2  0
 17 18  1  0
 18 19  1  0
 19 20  2  0
 19 21  1  0
 19 22  1  0
 15 23  1  0
 23 24  2  0
 23 25  1  0
 12 26  2  0
 26 27  1  0
 26  2  1  0
M  END
>  <shape_align_shape_tanimoto>  (3) 
0.62013238896661971

>  <shape_align_color_tanimoto>  (3) 
0.12601238116493646

>  <metric>  (3) 
combo

>  <metric_score>  (3) 
0.373

>  <template_pid>  (3) 
1I41

>  <template_shape_score>  (3) 
0.620

>  <template_color_score>  (3) 
0.126

>  <template_combo_score>  (3) 
0.373

$$$$
