6HOT_shape_pose
     RDKit          3D

 13 13  0  0  0  0  0  0  0  0999 V2000
 -138.1475 -174.0160  364.0615 C   0  0  0  0  0  0  0  0  0  0  0  0
 -137.8914 -172.7154  363.5654 O   0  0  0  0  0  0  0  0  0  0  0  0
 -138.9278 -172.0806  362.8947 C   0  0  0  0  0  0  0  0  0  0  0  0
 -140.1405 -172.7182  362.7369 C   0  0  0  0  0  0  0  0  0  0  0  0
 -141.2122 -172.1200  362.0698 C   0  0  0  0  0  0  0  0  0  0  0  0
 -142.4782 -172.8237  361.9223 C   0  0  0  0  0  0  0  0  0  0  0  0
 -143.5332 -172.3212  361.3049 C   0  0  0  0  0  0  0  0  0  0  0  0
 -144.7586 -173.0947  361.2041 C   0  0  0  0  0  0  0  0  0  0  0  0
 -145.8005 -172.6809  360.6318 O   0  0  0  0  0  0  0  0  0  0  0  0
 -140.9790 -170.8539  361.5808 C   0  0  0  0  0  0  0  0  0  0  0  0
 -139.7616 -170.2009  361.7334 C   0  0  0  0  0  0  0  0  0  0  0  0
 -138.7205 -170.8144  362.3962 C   0  0  0  0  0  0  0  0  0  0  0  0
 -137.4984 -170.2218  362.5779 O   0  0  0  0  0  0  0  0  0  0  0  0
  1  2  1  0
  2  3  1  0
  3  4  2  0
  4  5  1  0
  5  6  1  0
  6  7  2  0
  7  8  1  0
  8  9  2  0
  5 10  2  0
 10 11  1  0
 11 12  2  0
 12 13  1  0
 12  3  1  0
M  END
>  <shape_align_shape_tanimoto>  (1) 
0.33214245892785382

>  <shape_align_color_tanimoto>  (1) 
0.0070261844647020906

>  <metric>  (1) 
shape

>  <metric_score>  (1) 
0.332

>  <template_pid>  (1) 
6HOT

>  <template_shape_score>  (1) 
0.332

>  <template_color_score>  (1) 
0.007

>  <template_combo_score>  (1) 
0.170

$$$$
6HOT_color_pose
     RDKit          3D

 13 13  0  0  0  0  0  0  0  0999 V2000
 -139.1938 -174.9806  364.2433 C   0  0  0  0  0  0  0  0  0  0  0  0
 -138.4388 -173.8244  363.9356 O   0  0  0  0  0  0  0  0  0  0  0  0
 -138.9740 -172.7746  363.2178 C   0  0  0  0  0  0  0  0  0  0  0  0
 -140.2533 -172.7275  362.7349 C   0  0  0  0  0  0  0  0  0  0  0  0
 -140.7265 -171.6466  362.0239 C   0  0  0  0  0  0  0  0  0  0  0  0
 -142.0777 -171.5590  361.4948 C   0  0  0  0  0  0  0  0  0  0  0  0
 -142.9896 -172.5039  361.6404 C   0  0  0  0  0  0  0  0  0  0  0  0
 -144.3470 -172.3520  361.0769 C   0  0  0  0  0  0  0  0  0  0  0  0
 -145.2238 -173.2408  361.2070 O   0  0  0  0  0  0  0  0  0  0  0  0
 -139.8455 -170.6047  361.8187 C   0  0  0  0  0  0  0  0  0  0  0  0
 -138.5553 -170.5880  362.2737 C   0  0  0  0  0  0  0  0  0  0  0  0
 -138.1198 -171.6927  362.9830 C   0  0  0  0  0  0  0  0  0  0  0  0
 -136.8065 -171.6865  363.4515 O   0  0  0  0  0  0  0  0  0  0  0  0
  1  2  1  0
  2  3  1  0
  3  4  2  0
  4  5  1  0
  5  6  1  0
  6  7  2  0
  7  8  1  0
  8  9  2  0
  5 10  2  0
 10 11  1  0
 11 12  2  0
 12 13  1  0
 12  3  1  0
M  END
>  <shape_align_shape_tanimoto>  (2) 
0.32251849486778161

>  <shape_align_color_tanimoto>  (2) 
0.074311070195427126

>  <metric>  (2) 
color

>  <metric_score>  (2) 
0.074

>  <template_pid>  (2) 
6HOT

>  <template_shape_score>  (2) 
0.323

>  <template_color_score>  (2) 
0.074

>  <template_combo_score>  (2) 
0.198

$$$$
6HOT_combo_pose
     RDKit          3D

 13 13  0  0  0  0  0  0  0  0999 V2000
 -139.1769 -174.8174  364.4287 C   0  0  0  0  0  0  0  0  0  0  0  0
 -138.2871 -173.7563  364.1293 O   0  0  0  0  0  0  0  0  0  0  0  0
 -138.7781 -172.7188  363.3454 C   0  0  0  0  0  0  0  0  0  0  0  0
 -140.0648 -172.6796  362.8584 C   0  0  0  0  0  0  0  0  0  0  0  0
 -140.5033 -171.6330  362.0882 C   0  0  0  0  0  0  0  0  0  0  0  0
 -141.8521 -171.5393  361.5469 C   0  0  0  0  0  0  0  0  0  0  0  0
 -142.7867 -172.4512  361.7430 C   0  0  0  0  0  0  0  0  0  0  0  0
 -144.1128 -172.2855  361.1677 C   0  0  0  0  0  0  0  0  0  0  0  0
 -145.0459 -173.1210  361.3197 O   0  0  0  0  0  0  0  0  0  0  0  0
 -139.5970 -170.6239  361.8251 C   0  0  0  0  0  0  0  0  0  0  0  0
 -138.3002 -170.6319  362.2976 C   0  0  0  0  0  0  0  0  0  0  0  0
 -137.8889 -171.6916  363.0656 C   0  0  0  0  0  0  0  0  0  0  0  0
 -136.5849 -171.7059  363.5444 O   0  0  0  0  0  0  0  0  0  0  0  0
  1  2  1  0
  2  3  1  0
  3  4  2  0
  4  5  1  0
  5  6  1  0
  6  7  2  0
  7  8  1  0
  8  9  2  0
  5 10  2  0
 10 11  1  0
 11 12  2  0
 12 13  1  0
 12  3  1  0
M  END
>  <shape_align_shape_tanimoto>  (3) 
0.32712017238557611

>  <shape_align_color_tanimoto>  (3) 
0.069884552683261311

>  <metric>  (3) 
combo

>  <metric_score>  (3) 
0.199

>  <template_pid>  (3) 
6HOT

>  <template_shape_score>  (3) 
0.327

>  <template_color_score>  (3) 
0.070

>  <template_combo_score>  (3) 
0.199

$$$$
