3F82_shape_pose
     RDKit          3D

 36 39  0  0  0  0  0  0  0  0999 V2000
   -8.0318    7.6359   47.3773 C   0  0  0  0  0  0  0  0  0  0  0  0
   -7.9521    6.4144   48.2930 C   0  0  0  0  0  0  0  0  0  0  0  0
   -8.3119    6.7821   49.5847 O   0  0  0  0  0  0  0  0  0  0  0  0
   -8.3794    6.0199   50.7039 C   0  0  0  0  0  0  0  0  0  0  0  0
   -8.0468    4.6642   50.5808 C   0  0  0  0  0  0  0  0  0  0  0  0
   -8.0960    3.8369   51.6826 C   0  0  0  0  0  0  0  0  0  0  0  0
   -8.4735    4.4048   52.8458 N   0  0  0  0  0  0  0  0  0  0  0  0
   -8.5239    3.5508   53.9818 C   0  0  0  0  0  0  0  0  0  0  0  0
   -9.6049    3.4919   54.8346 C   0  0  0  0  0  0  0  0  0  0  0  0
   -9.5334    2.6119   55.9165 C   0  0  0  0  0  0  0  0  0  0  0  0
   -8.4123    1.8265   56.1221 C   0  0  0  0  0  0  0  0  0  0  0  0
   -8.3171    0.9604   57.1689 F   0  0  0  0  0  0  0  0  0  0  0  0
   -7.3338    1.8885   55.2670 C   0  0  0  0  0  0  0  0  0  0  0  0
   -7.4004    2.7535   54.2009 C   0  0  0  0  0  0  0  0  0  0  0  0
   -8.7935    5.6920   52.9824 C   0  0  0  0  0  0  0  0  0  0  0  0
   -9.1306    6.0933   54.1324 O   0  0  0  0  0  0  0  0  0  0  0  0
   -8.7586    6.5752   51.8883 C   0  0  0  0  0  0  0  0  0  0  0  0
   -9.1189    7.9335   52.1376 C   0  0  0  0  0  0  0  0  0  0  0  0
   -9.4545    8.2927   53.3252 O   0  0  0  0  0  0  0  0  0  0  0  0
   -9.1522    8.9845   51.1851 N   0  0  0  0  0  0  0  0  0  0  0  0
   -9.5294   10.3032   51.5552 C   0  0  0  0  0  0  0  0  0  0  0  0
  -10.8538   10.7087   51.4978 C   0  0  0  0  0  0  0  0  0  0  0  0
  -11.1776   11.9984   51.8662 C   0  0  0  0  0  0  0  0  0  0  0  0
  -10.2014   12.8840   52.2889 C   0  0  0  0  0  0  0  0  0  0  0  0
  -10.5035   14.1895   52.6654 O   0  0  0  0  0  0  0  0  0  0  0  0
  -10.1665   14.5269   53.9888 C   0  0  0  0  0  0  0  0  0  0  0  0
   -9.2819   15.5443   54.2797 C   0  0  0  0  0  0  0  0  0  0  0  0
   -8.9828   15.8376   55.6032 C   0  0  0  0  0  0  0  0  0  0  0  0
   -9.5332   15.1548   56.6221 N   0  0  0  0  0  0  0  0  0  0  0  0
  -10.4036   14.1520   56.3768 C   0  0  0  0  0  0  0  0  0  0  0  0
  -11.0006   13.4125   57.4548 N   0  0  0  0  0  0  0  0  0  0  0  0
  -10.7117   13.8480   55.0615 C   0  0  0  0  0  0  0  0  0  0  0  0
  -11.8439   12.5413   54.7929 Cl  0  0  0  0  0  0  0  0  0  0  0  0
   -8.8685   12.4682   52.3442 C   0  0  0  0  0  0  0  0  0  0  0  0
   -7.8923   13.3066   52.7518 F   0  0  0  0  0  0  0  0  0  0  0  0
   -8.5587   11.1697   51.9711 C   0  0  0  0  0  0  0  0  0  0  0  0
  1  2  1  0
  2  3  1  0
  3  4  1  0
  4  5  1  0
  5  6  2  0
  6  7  1  0
  7  8  1  0
  8  9  2  0
  9 10  1  0
 10 11  2  0
 11 12  1  0
 11 13  1  0
 13 14  2  0
  7 15  1  0
 15 16  2  0
 15 17  1  0
 17 18  1  0
 18 19  2  0
 18 20  1  0
 20 21  1  0
 21 22  2  0
 22 23  1  0
 23 24  2  0
 24 25  1  0
 25 26  1  0
 26 27  2  0
 27 28  1  0
 28 29  2  0
 29 30  1  0
 30 31  1  0
 30 32  2  0
 32 33  1  0
 24 34  1  0
 34 35  1  0
 34 36  2  0
 17  4  2  0
 36 21  1  0
 14  8  1  0
 32 26  1  0
M  END
>  <shape_align_shape_tanimoto>  (1) 
0.53340998358907477

>  <shape_align_color_tanimoto>  (1) 
0.071172481458176548

>  <metric>  (1) 
shape

>  <metric_score>  (1) 
0.533

>  <template_pid>  (1) 
3F82

>  <template_shape_score>  (1) 
0.533

>  <template_color_score>  (1) 
0.071

>  <template_combo_score>  (1) 
0.302

$$$$
3F82_color_pose
     RDKit          3D

 36 39  0  0  0  0  0  0  0  0999 V2000
  -12.6327   10.3967   48.9419 C   0  0  0  0  0  0  0  0  0  0  0  0
  -12.7764    9.5964   50.2130 C   0  0  0  0  0  0  0  0  0  0  0  0
  -11.5400    9.4780   50.8345 O   0  0  0  0  0  0  0  0  0  0  0  0
  -10.7117   10.4398   51.3120 C   0  0  0  0  0  0  0  0  0  0  0  0
  -11.1081   11.7663   51.1940 C   0  0  0  0  0  0  0  0  0  0  0  0
  -10.3078   12.8101   51.6621 C   0  0  0  0  0  0  0  0  0  0  0  0
   -9.1432   12.4352   52.2272 N   0  0  0  0  0  0  0  0  0  0  0  0
   -8.3107   13.4873   52.7136 C   0  0  0  0  0  0  0  0  0  0  0  0
   -7.8353   14.4186   51.8047 C   0  0  0  0  0  0  0  0  0  0  0  0
   -7.0240   15.4494   52.2666 C   0  0  0  0  0  0  0  0  0  0  0  0
   -6.7241   15.5097   53.5945 C   0  0  0  0  0  0  0  0  0  0  0  0
   -5.9246   16.5303   54.0338 F   0  0  0  0  0  0  0  0  0  0  0  0
   -7.1884   14.5863   54.5327 C   0  0  0  0  0  0  0  0  0  0  0  0
   -7.9926   13.5658   54.0687 C   0  0  0  0  0  0  0  0  0  0  0  0
   -8.7448   11.1717   52.3504 C   0  0  0  0  0  0  0  0  0  0  0  0
   -7.6178   10.9682   52.9066 O   0  0  0  0  0  0  0  0  0  0  0  0
   -9.5195   10.0946   51.8928 C   0  0  0  0  0  0  0  0  0  0  0  0
   -9.0065    8.7612   52.0786 C   0  0  0  0  0  0  0  0  0  0  0  0
   -7.8466    8.6319   52.6168 O   0  0  0  0  0  0  0  0  0  0  0  0
   -9.6407    7.5593   51.7335 N   0  0  0  0  0  0  0  0  0  0  0  0
   -9.0312    6.2942   51.9678 C   0  0  0  0  0  0  0  0  0  0  0  0
   -8.2295    5.6492   51.0610 C   0  0  0  0  0  0  0  0  0  0  0  0
   -7.6795    4.4077   51.3934 C   0  0  0  0  0  0  0  0  0  0  0  0
   -7.9100    3.7992   52.6031 C   0  0  0  0  0  0  0  0  0  0  0  0
   -7.4011    2.5838   52.9940 O   0  0  0  0  0  0  0  0  0  0  0  0
   -6.5527    1.7677   52.2771 C   0  0  0  0  0  0  0  0  0  0  0  0
   -7.0515    0.5035   51.9423 C   0  0  0  0  0  0  0  0  0  0  0  0
   -6.2923   -0.3983   51.2273 C   0  0  0  0  0  0  0  0  0  0  0  0
   -5.0559   -0.0057   50.8697 N   0  0  0  0  0  0  0  0  0  0  0  0
   -4.5520    1.2003   51.1776 C   0  0  0  0  0  0  0  0  0  0  0  0
   -3.2341    1.5003   50.7455 N   0  0  0  0  0  0  0  0  0  0  0  0
   -5.2782    2.1291   51.8904 C   0  0  0  0  0  0  0  0  0  0  0  0
   -4.6343    3.7005   52.3190 Cl  0  0  0  0  0  0  0  0  0  0  0  0
   -8.7254    4.4598   53.5195 C   0  0  0  0  0  0  0  0  0  0  0  0
   -8.9822    3.8874   54.7384 F   0  0  0  0  0  0  0  0  0  0  0  0
   -9.2661    5.6838   53.1882 C   0  0  0  0  0  0  0  0  0  0  0  0
  1  2  1  0
  2  3  1  0
  3  4  1  0
  4  5  1  0
  5  6  2  0
  6  7  1  0
  7  8  1  0
  8  9  2  0
  9 10  1  0
 10 11  2  0
 11 12  1  0
 11 13  1  0
 13 14  2  0
  7 15  1  0
 15 16  2  0
 15 17  1  0
 17 18  1  0
 18 19  2  0
 18 20  1  0
 20 21  1  0
 21 22  2  0
 22 23  1  0
 23 24  2  0
 24 25  1  0
 25 26  1  0
 26 27  2  0
 27 28  1  0
 28 29  2  0
 29 30  1  0
 30 31  1  0
 30 32  2  0
 32 33  1  0
 24 34  1  0
 34 35  1  0
 34 36  2  0
 17  4  2  0
 36 21  1  0
 14  8  1  0
 32 26  1  0
M  END
>  <shape_align_shape_tanimoto>  (2) 
0.43659540637089284

>  <shape_align_color_tanimoto>  (2) 
0.089749207534174119

>  <metric>  (2) 
color

>  <metric_score>  (2) 
0.090

>  <template_pid>  (2) 
3F82

>  <template_shape_score>  (2) 
0.437

>  <template_color_score>  (2) 
0.090

>  <template_combo_score>  (2) 
0.263

$$$$
3F82_combo_pose
     RDKit          3D

 36 39  0  0  0  0  0  0  0  0999 V2000
   -8.3459    7.5154   47.3632 C   0  0  0  0  0  0  0  0  0  0  0  0
   -8.1716    6.4293   48.4080 C   0  0  0  0  0  0  0  0  0  0  0  0
   -8.5042    6.8483   49.7009 O   0  0  0  0  0  0  0  0  0  0  0  0
   -8.4724    6.0408   50.8260 C   0  0  0  0  0  0  0  0  0  0  0  0
   -8.0652    4.6993   50.5533 C   0  0  0  0  0  0  0  0  0  0  0  0
   -8.0475    3.9032   51.6890 C   0  0  0  0  0  0  0  0  0  0  0  0
   -8.3629    4.2913   52.9148 N   0  0  0  0  0  0  0  0  0  0  0  0
   -8.2845    3.2951   53.9590 C   0  0  0  0  0  0  0  0  0  0  0  0
   -7.8735    3.6104   55.2351 C   0  0  0  0  0  0  0  0  0  0  0  0
   -7.8321    2.5677   56.1698 C   0  0  0  0  0  0  0  0  0  0  0  0
   -8.1941    1.2929   55.7885 C   0  0  0  0  0  0  0  0  0  0  0  0
   -8.1130    0.3284   56.7501 F   0  0  0  0  0  0  0  0  0  0  0  0
   -8.6057    0.9598   54.5221 C   0  0  0  0  0  0  0  0  0  0  0  0
   -8.6484    1.9895   53.5979 C   0  0  0  0  0  0  0  0  0  0  0  0
   -8.7473    5.5619   53.1773 C   0  0  0  0  0  0  0  0  0  0  0  0
   -9.0448    5.9201   54.3435 O   0  0  0  0  0  0  0  0  0  0  0  0
   -8.7875    6.4131   52.0888 C   0  0  0  0  0  0  0  0  0  0  0  0
   -9.1630    7.8035   52.3749 C   0  0  0  0  0  0  0  0  0  0  0  0
   -9.8538    8.0790   53.4219 O   0  0  0  0  0  0  0  0  0  0  0  0
   -8.8183    8.9001   51.5697 N   0  0  0  0  0  0  0  0  0  0  0  0
   -9.1957   10.2481   51.7936 C   0  0  0  0  0  0  0  0  0  0  0  0
  -10.3498   10.6636   51.1002 C   0  0  0  0  0  0  0  0  0  0  0  0
  -10.8383   11.9454   51.2064 C   0  0  0  0  0  0  0  0  0  0  0  0
  -10.1850   12.8676   52.0168 C   0  0  0  0  0  0  0  0  0  0  0  0
  -10.7305   14.1366   52.0672 O   0  0  0  0  0  0  0  0  0  0  0  0
  -11.7867   14.5172   51.2828 C   0  0  0  0  0  0  0  0  0  0  0  0
  -13.0326   14.9072   51.7803 C   0  0  0  0  0  0  0  0  0  0  0  0
  -13.9549   15.2571   50.7982 C   0  0  0  0  0  0  0  0  0  0  0  0
  -13.7376   15.2434   49.4968 N   0  0  0  0  0  0  0  0  0  0  0  0
  -12.5294   14.8654   49.0026 C   0  0  0  0  0  0  0  0  0  0  0  0
  -12.2806   14.8491   47.6006 N   0  0  0  0  0  0  0  0  0  0  0  0
  -11.5510   14.5016   49.8940 C   0  0  0  0  0  0  0  0  0  0  0  0
   -9.9944   14.0447   49.2380 Cl  0  0  0  0  0  0  0  0  0  0  0  0
   -9.0721   12.4383   52.6762 C   0  0  0  0  0  0  0  0  0  0  0  0
   -8.4347   13.3435   53.4678 F   0  0  0  0  0  0  0  0  0  0  0  0
   -8.5635   11.1562   52.5840 C   0  0  0  0  0  0  0  0  0  0  0  0
  1  2  1  0
  2  3  1  0
  3  4  1  0
  4  5  1  0
  5  6  2  0
  6  7  1  0
  7  8  1  0
  8  9  2  0
  9 10  1  0
 10 11  2  0
 11 12  1  0
 11 13  1  0
 13 14  2  0
  7 15  1  0
 15 16  2  0
 15 17  1  0
 17 18  1  0
 18 19  2  0
 18 20  1  0
 20 21  1  0
 21 22  2  0
 22 23  1  0
 23 24  2  0
 24 25  1  0
 25 26  1  0
 26 27  2  0
 27 28  1  0
 28 29  2  0
 29 30  1  0
 30 31  1  0
 30 32  2  0
 32 33  1  0
 24 34  1  0
 34 35  1  0
 34 36  2  0
 17  4  2  0
 36 21  1  0
 14  8  1  0
 32 26  1  0
M  END
>  <shape_align_shape_tanimoto>  (3) 
0.52771489664749049

>  <shape_align_color_tanimoto>  (3) 
0.079792353105617581

>  <metric>  (3) 
combo

>  <metric_score>  (3) 
0.304

>  <template_pid>  (3) 
3F82

>  <template_shape_score>  (3) 
0.528

>  <template_color_score>  (3) 
0.080

>  <template_combo_score>  (3) 
0.304

$$$$
