4CLJ_shape_pose
     RDKit          3D

 30 33  0  0  0  0  0  0  0  0999 V2000
  -53.3446   -0.5564  -25.7616 C   0  0  0  0  0  0  0  0  0  0  0  0
  -53.0851   -1.0577  -24.3236 C   0  0  1  0  0  0  0  0  0  0  0  0
  -54.3298   -0.7602  -23.6550 O   0  0  0  0  0  0  0  0  0  0  0  0
  -54.3093    0.3256  -22.7564 C   0  0  0  0  0  0  0  0  0  0  0  0
  -53.7706    0.0558  -21.5227 C   0  0  0  0  0  0  0  0  0  0  0  0
  -53.6007    0.9496  -20.5049 C   0  0  0  0  0  0  0  0  0  0  0  0
  -54.0255    2.2325  -20.7190 C   0  0  0  0  0  0  0  0  0  0  0  0
  -54.5645    2.5070  -21.9125 N   0  0  0  0  0  0  0  0  0  0  0  0
  -54.7212    1.6081  -22.9375 C   0  0  0  0  0  0  0  0  0  0  0  0
  -55.2951    1.9603  -24.1774 N   0  0  0  0  0  0  0  0  0  0  0  0
  -52.8078    0.5181  -19.3613 C   0  0  0  0  0  0  0  0  0  0  0  0
  -51.5738   -0.2248  -19.5633 C   0  0  0  0  0  0  0  0  0  0  0  0
  -51.1492   -0.4240  -18.3148 N   0  0  0  0  0  0  0  0  0  0  0  0
  -51.9721    0.1056  -17.4354 N   0  0  0  0  0  0  0  0  0  0  0  0
  -51.7918    0.0593  -16.0004 C   0  0  0  0  0  0  0  0  0  0  0  0
  -53.0177    0.7030  -18.0469 C   0  0  0  0  0  0  0  0  0  0  0  0
  -54.1375    1.4176  -17.5097 C   0  0  0  0  0  0  0  0  0  0  0  0
  -55.0468    1.9988  -17.0510 N   0  0  0  0  0  0  0  0  0  0  0  0
  -51.2714   -0.4343  -20.9201 C   0  0  0  0  0  0  0  0  0  0  0  0
  -50.8286   -1.4300  -21.7880 N   0  0  0  0  0  0  0  0  0  0  0  0
  -49.4841   -1.6313  -22.3001 C   0  0  0  0  0  0  0  0  0  0  0  0
  -51.7306   -2.4390  -22.2235 C   0  0  0  0  0  0  0  0  0  0  0  0
  -52.5875   -2.7792  -21.3989 O   0  0  0  0  0  0  0  0  0  0  0  0
  -51.8631   -3.1290  -23.4808 C   0  0  0  0  0  0  0  0  0  0  0  0
  -51.3767   -4.3761  -23.5962 C   0  0  0  0  0  0  0  0  0  0  0  0
  -51.5774   -5.0803  -24.7496 C   0  0  0  0  0  0  0  0  0  0  0  0
  -52.2901   -4.4473  -25.7531 C   0  0  0  0  0  0  0  0  0  0  0  0
  -52.5030   -5.1400  -26.9211 F   0  0  0  0  0  0  0  0  0  0  0  0
  -52.7892   -3.1629  -25.6277 C   0  0  0  0  0  0  0  0  0  0  0  0
  -52.5972   -2.4146  -24.4549 C   0  0  0  0  0  0  0  0  0  0  0  0
  2  1  1  6
  2  3  1  0
  3  4  1  0
  4  5  1  0
  5  6  2  0
  6  7  1  0
  7  8  2  0
  8  9  1  0
  9 10  1  0
  6 11  1  0
 11 12  1  0
 12 13  2  0
 13 14  1  0
 14 15  1  0
 14 16  1  0
 16 17  1  0
 17 18  3  0
 12 19  1  0
 19 20  1  0
 20 21  1  0
 20 22  1  0
 22 23  2  0
 22 24  1  0
 24 25  2  0
 25 26  1  0
 26 27  2  0
 27 28  1  0
 27 29  1  0
 29 30  2  0
 30  2  1  0
  9  4  2  0
 16 11  2  0
 30 24  1  0
M  END
>  <shape_align_shape_tanimoto>  (1) 
0.62059485882812226

>  <shape_align_color_tanimoto>  (1) 
0.037595919817301399

>  <metric>  (1) 
shape

>  <metric_score>  (1) 
0.621

>  <template_pid>  (1) 
4CLJ

>  <template_shape_score>  (1) 
0.621

>  <template_color_score>  (1) 
0.038

>  <template_combo_score>  (1) 
0.329

$$$$
4CLJ_color_pose
     RDKit          3D

 30 33  0  0  0  0  0  0  0  0999 V2000
  -55.7454   -0.3054  -16.8365 C   0  0  0  0  0  0  0  0  0  0  0  0
  -54.7236    0.2916  -17.7740 C   0  0  1  0  0  0  0  0  0  0  0  0
  -55.0999    1.5780  -18.2447 O   0  0  0  0  0  0  0  0  0  0  0  0
  -54.7375    2.0463  -19.4925 C   0  0  0  0  0  0  0  0  0  0  0  0
  -54.5285    1.1150  -20.4828 C   0  0  0  0  0  0  0  0  0  0  0  0
  -54.1433    1.5893  -21.7061 C   0  0  0  0  0  0  0  0  0  0  0  0
  -53.9622    2.9091  -22.0223 C   0  0  0  0  0  0  0  0  0  0  0  0
  -54.1796    3.8033  -21.0399 N   0  0  0  0  0  0  0  0  0  0  0  0
  -54.5542    3.3674  -19.8184 C   0  0  0  0  0  0  0  0  0  0  0  0
  -54.7777    4.3269  -18.7902 N   0  0  0  0  0  0  0  0  0  0  0  0
  -53.8077    0.5855  -22.7299 C   0  0  0  0  0  0  0  0  0  0  0  0
  -52.8609   -0.3562  -22.6387 C   0  0  0  0  0  0  0  0  0  0  0  0
  -52.9795   -1.0315  -23.8753 N   0  0  0  0  0  0  0  0  0  0  0  0
  -53.9095   -0.5088  -24.5893 N   0  0  0  0  0  0  0  0  0  0  0  0
  -54.2973   -0.9584  -25.9123 C   0  0  0  0  0  0  0  0  0  0  0  0
  -54.4913    0.5137  -23.9623 C   0  0  0  0  0  0  0  0  0  0  0  0
  -55.5583    1.3783  -24.4043 C   0  0  0  0  0  0  0  0  0  0  0  0
  -56.4301    2.0738  -24.7830 N   0  0  0  0  0  0  0  0  0  0  0  0
  -51.8798   -0.7152  -21.6490 C   0  0  0  0  0  0  0  0  0  0  0  0
  -52.1223   -0.7534  -20.2528 N   0  0  0  0  0  0  0  0  0  0  0  0
  -52.6129   -1.9846  -19.6723 C   0  0  0  0  0  0  0  0  0  0  0  0
  -51.9074    0.2765  -19.3000 C   0  0  0  0  0  0  0  0  0  0  0  0
  -51.4264    1.2997  -19.7854 O   0  0  0  0  0  0  0  0  0  0  0  0
  -52.1729    0.2665  -17.8808 C   0  0  0  0  0  0  0  0  0  0  0  0
  -50.9842    0.2650  -17.1098 C   0  0  0  0  0  0  0  0  0  0  0  0
  -50.9769    0.2727  -15.7456 C   0  0  0  0  0  0  0  0  0  0  0  0
  -52.1659    0.2830  -15.0550 C   0  0  0  0  0  0  0  0  0  0  0  0
  -52.1976    0.2906  -13.7009 F   0  0  0  0  0  0  0  0  0  0  0  0
  -53.3229    0.2852  -15.7926 C   0  0  0  0  0  0  0  0  0  0  0  0
  -53.3353    0.2771  -17.1959 C   0  0  0  0  0  0  0  0  0  0  0  0
  2  1  1  1
  2  3  1  0
  3  4  1  0
  4  5  1  0
  5  6  2  0
  6  7  1  0
  7  8  2  0
  8  9  1  0
  9 10  1  0
  6 11  1  0
 11 12  1  0
 12 13  2  0
 13 14  1  0
 14 15  1  0
 14 16  1  0
 16 17  1  0
 17 18  3  0
 12 19  1  0
 19 20  1  0
 20 21  1  0
 20 22  1  0
 22 23  2  0
 22 24  1  0
 24 25  2  0
 25 26  1  0
 26 27  2  0
 27 28  1  0
 27 29  1  0
 29 30  2  0
 30  2  1  0
  9  4  2  0
 16 11  2  0
 30 24  1  0
M  END
>  <shape_align_shape_tanimoto>  (2) 
0.44001345446017354

>  <shape_align_color_tanimoto>  (2) 
0.13757562841813692

>  <metric>  (2) 
color

>  <metric_score>  (2) 
0.138

>  <template_pid>  (2) 
4CLJ

>  <template_shape_score>  (2) 
0.440

>  <template_color_score>  (2) 
0.138

>  <template_combo_score>  (2) 
0.289

$$$$
4CLJ_combo_pose
     RDKit          3D

 30 33  0  0  0  0  0  0  0  0999 V2000
  -52.4583   -0.3387  -26.1659 C   0  0  0  0  0  0  0  0  0  0  0  0
  -52.1925   -0.7915  -24.7429 C   0  0  1  0  0  0  0  0  0  0  0  0
  -52.8944   -0.2333  -23.8038 O   0  0  0  0  0  0  0  0  0  0  0  0
  -53.5882    0.3217  -22.8711 C   0  0  0  0  0  0  0  0  0  0  0  0
  -52.9948    0.1690  -21.5825 C   0  0  0  0  0  0  0  0  0  0  0  0
  -53.5639    0.6312  -20.4657 C   0  0  0  0  0  0  0  0  0  0  0  0
  -54.7440    1.2990  -20.4985 C   0  0  0  0  0  0  0  0  0  0  0  0
  -55.3348    1.4791  -21.6883 N   0  0  0  0  0  0  0  0  0  0  0  0
  -54.7781    1.0091  -22.8115 C   0  0  0  0  0  0  0  0  0  0  0  0
  -55.4222    1.2027  -24.0942 N   0  0  0  0  0  0  0  0  0  0  0  0
  -52.8894    0.1814  -19.2232 C   0  0  0  0  0  0  0  0  0  0  0  0
  -52.5030   -1.1088  -19.0202 C   0  0  0  0  0  0  0  0  0  0  0  0
  -51.9021   -1.0265  -17.7451 N   0  0  0  0  0  0  0  0  0  0  0  0
  -51.9600    0.1895  -17.2999 N   0  0  0  0  0  0  0  0  0  0  0  0
  -51.4331    0.6106  -16.0199 C   0  0  0  0  0  0  0  0  0  0  0  0
  -52.5684    1.0084  -18.1738 C   0  0  0  0  0  0  0  0  0  0  0  0
  -52.8537    2.4104  -18.0830 C   0  0  0  0  0  0  0  0  0  0  0  0
  -53.0866    3.5589  -17.9880 N   0  0  0  0  0  0  0  0  0  0  0  0
  -52.6243   -2.3572  -19.7138 C   0  0  0  0  0  0  0  0  0  0  0  0
  -52.8431   -2.5895  -21.0811 N   0  0  0  0  0  0  0  0  0  0  0  0
  -54.1894   -2.7655  -21.5782 C   0  0  0  0  0  0  0  0  0  0  0  0
  -51.8477   -2.7644  -22.1116 C   0  0  0  0  0  0  0  0  0  0  0  0
  -50.7058   -2.6736  -21.7068 O   0  0  0  0  0  0  0  0  0  0  0  0
  -52.0492   -3.0401  -23.5209 C   0  0  0  0  0  0  0  0  0  0  0  0
  -52.0498   -4.4656  -23.6940 C   0  0  0  0  0  0  0  0  0  0  0  0
  -52.1932   -5.0845  -24.8836 C   0  0  0  0  0  0  0  0  0  0  0  0
  -52.3484   -4.3207  -26.0101 C   0  0  0  0  0  0  0  0  0  0  0  0
  -52.4945   -4.9119  -27.2118 F   0  0  0  0  0  0  0  0  0  0  0  0
  -52.3467   -2.9553  -25.8494 C   0  0  0  0  0  0  0  0  0  0  0  0
  -52.1985   -2.3107  -24.6200 C   0  0  0  0  0  0  0  0  0  0  0  0
  2  1  1  6
  2  3  1  0
  3  4  1  0
  4  5  1  0
  5  6  2  0
  6  7  1  0
  7  8  2  0
  8  9  1  0
  9 10  1  0
  6 11  1  0
 11 12  1  0
 12 13  2  0
 13 14  1  0
 14 15  1  0
 14 16  1  0
 16 17  1  0
 17 18  3  0
 12 19  1  0
 19 20  1  0
 20 21  1  0
 20 22  1  0
 22 23  2  0
 22 24  1  0
 24 25  2  0
 25 26  1  0
 26 27  2  0
 27 28  1  0
 27 29  1  0
 29 30  2  0
 30  2  1  0
  9  4  2  0
 16 11  2  0
 30 24  1  0
M  END
>  <shape_align_shape_tanimoto>  (3) 
0.60314276980507031

>  <shape_align_color_tanimoto>  (3) 
0.074973489559910692

>  <metric>  (3) 
combo

>  <metric_score>  (3) 
0.339

>  <template_pid>  (3) 
4CLJ

>  <template_shape_score>  (3) 
0.603

>  <template_color_score>  (3) 
0.075

>  <template_combo_score>  (3) 
0.339

$$$$
