3AZB_shape_pose
     RDKit          3D

 20 22  0  0  0  0  0  0  0  0999 V2000
   -6.2251   16.1427  -28.7958 Cl  0  0  0  0  0  0  0  0  0  0  0  0
   -6.0540   17.5280  -29.8732 C   0  0  0  0  0  0  0  0  0  0  0  0
   -5.9537   18.7882  -29.3388 C   0  0  0  0  0  0  0  0  0  0  0  0
   -5.8217   19.8423  -30.2092 C   0  0  0  0  0  0  0  0  0  0  0  0
   -5.7891   19.6589  -31.5768 C   0  0  0  0  0  0  0  0  0  0  0  0
   -5.8902   18.3751  -32.1438 C   0  0  0  0  0  0  0  0  0  0  0  0
   -5.8681   18.2562  -33.5954 C   0  0  0  0  0  0  0  0  0  0  0  0
   -4.6763   18.2050  -34.2519 O   0  0  0  0  0  0  0  0  0  0  0  0
   -3.5984   17.3918  -34.2657 C   0  0  0  0  0  0  0  0  0  0  0  0
   -3.3874   16.2527  -33.5356 C   0  0  0  0  0  0  0  0  0  0  0  0
   -2.2465   15.4801  -33.6168 C   0  0  0  0  0  0  0  0  0  0  0  0
   -1.2367   15.8471  -34.4751 C   0  0  0  0  0  0  0  0  0  0  0  0
    0.2225   14.9030  -34.6120 Cl  0  0  0  0  0  0  0  0  0  0  0  0
   -1.4061   16.9868  -35.2300 C   0  0  0  0  0  0  0  0  0  0  0  0
   -0.3905   17.3631  -36.0987 C   0  0  0  0  0  0  0  0  0  0  0  0
   -0.5585   18.5098  -36.8597 C   0  0  0  0  0  0  0  0  0  0  0  0
   -1.7091   19.2693  -36.7628 C   0  0  0  0  0  0  0  0  0  0  0  0
   -2.6532   18.8521  -35.9049 N   0  0  0  0  0  0  0  0  0  0  0  0
   -2.5497   17.7470  -35.1378 C   0  0  0  0  0  0  0  0  0  0  0  0
   -6.0210   17.3499  -31.2408 C   0  0  0  0  0  0  0  0  0  0  0  0
  1  2  1  0
  2  3  2  0
  3  4  1  0
  4  5  2  0
  5  6  1  0
  6  7  1  0
  7  8  1  0
  8  9  1  0
  9 10  2  0
 10 11  1  0
 11 12  2  0
 12 13  1  0
 12 14  1  0
 14 15  2  0
 15 16  1  0
 16 17  2  0
 17 18  1  0
 18 19  2  0
  6 20  2  0
 20  2  1  0
 19  9  1  0
 19 14  1  0
M  END
>  <shape_align_shape_tanimoto>  (1) 
0.60975155855398655

>  <shape_align_color_tanimoto>  (1) 
0.04880301503804968

>  <metric>  (1) 
shape

>  <metric_score>  (1) 
0.610

>  <template_pid>  (1) 
3AZB

>  <template_shape_score>  (1) 
0.610

>  <template_color_score>  (1) 
0.049

>  <template_combo_score>  (1) 
0.329

$$$$
3AZB_color_pose
     RDKit          3D

 20 22  0  0  0  0  0  0  0  0999 V2000
   -4.0804   14.0278  -26.2152 Cl  0  0  0  0  0  0  0  0  0  0  0  0
   -5.1060   15.3983  -26.6124 C   0  0  0  0  0  0  0  0  0  0  0  0
   -5.1827   16.4729  -25.7541 C   0  0  0  0  0  0  0  0  0  0  0  0
   -5.9884   17.5482  -26.0675 C   0  0  0  0  0  0  0  0  0  0  0  0
   -6.7137   17.5417  -27.2400 C   0  0  0  0  0  0  0  0  0  0  0  0
   -6.6621   16.4694  -28.1368 C   0  0  0  0  0  0  0  0  0  0  0  0
   -7.4912   16.5367  -29.3575 C   0  0  0  0  0  0  0  0  0  0  0  0
   -6.9551   17.2200  -30.4270 O   0  0  0  0  0  0  0  0  0  0  0  0
   -5.8869   17.1201  -31.2179 C   0  0  0  0  0  0  0  0  0  0  0  0
   -4.8853   16.1784  -31.1954 C   0  0  0  0  0  0  0  0  0  0  0  0
   -3.8167   16.1653  -32.0661 C   0  0  0  0  0  0  0  0  0  0  0  0
   -3.7146   17.1383  -33.0289 C   0  0  0  0  0  0  0  0  0  0  0  0
   -2.3753   17.1518  -34.1472 Cl  0  0  0  0  0  0  0  0  0  0  0  0
   -4.6811   18.0927  -33.0924 C   0  0  0  0  0  0  0  0  0  0  0  0
   -4.5564   19.0688  -34.0769 C   0  0  0  0  0  0  0  0  0  0  0  0
   -5.5021   20.0651  -34.1954 C   0  0  0  0  0  0  0  0  0  0  0  0
   -6.5580   20.0350  -33.2960 C   0  0  0  0  0  0  0  0  0  0  0  0
   -6.6535   19.0779  -32.3527 N   0  0  0  0  0  0  0  0  0  0  0  0
   -5.7427   18.1022  -32.2240 C   0  0  0  0  0  0  0  0  0  0  0  0
   -5.8486   15.4269  -27.7803 C   0  0  0  0  0  0  0  0  0  0  0  0
  1  2  1  0
  2  3  2  0
  3  4  1  0
  4  5  2  0
  5  6  1  0
  6  7  1  0
  7  8  1  0
  8  9  1  0
  9 10  2  0
 10 11  1  0
 11 12  2  0
 12 13  1  0
 12 14  1  0
 14 15  2  0
 15 16  1  0
 16 17  2  0
 17 18  1  0
 18 19  2  0
  6 20  2  0
 20  2  1  0
 19  9  1  0
 19 14  1  0
M  END
>  <shape_align_shape_tanimoto>  (2) 
0.46119643415982814

>  <shape_align_color_tanimoto>  (2) 
0.07122751983061483

>  <metric>  (2) 
color

>  <metric_score>  (2) 
0.071

>  <template_pid>  (2) 
3AZB

>  <template_shape_score>  (2) 
0.461

>  <template_color_score>  (2) 
0.071

>  <template_combo_score>  (2) 
0.266

$$$$
3AZB_combo_pose
     RDKit          3D

 20 22  0  0  0  0  0  0  0  0999 V2000
   -6.1790   16.1348  -28.7401 Cl  0  0  0  0  0  0  0  0  0  0  0  0
   -6.0237   17.5043  -29.7940 C   0  0  0  0  0  0  0  0  0  0  0  0
   -5.9065   18.7663  -29.2455 C   0  0  0  0  0  0  0  0  0  0  0  0
   -5.7849   19.8306  -30.1167 C   0  0  0  0  0  0  0  0  0  0  0  0
   -5.7797   19.6462  -31.4972 C   0  0  0  0  0  0  0  0  0  0  0  0
   -5.8987   18.3638  -32.0463 C   0  0  0  0  0  0  0  0  0  0  0  0
   -5.9005   18.2464  -33.5169 C   0  0  0  0  0  0  0  0  0  0  0  0
   -4.7060   18.1619  -34.1545 O   0  0  0  0  0  0  0  0  0  0  0  0
   -3.6355   17.3736  -34.2018 C   0  0  0  0  0  0  0  0  0  0  0  0
   -3.4191   16.2077  -33.4773 C   0  0  0  0  0  0  0  0  0  0  0  0
   -2.2763   15.4520  -33.5910 C   0  0  0  0  0  0  0  0  0  0  0  0
   -1.2891   15.8503  -34.4562 C   0  0  0  0  0  0  0  0  0  0  0  0
    0.1706   14.9039  -34.6153 Cl  0  0  0  0  0  0  0  0  0  0  0  0
   -1.4500   16.9925  -35.1959 C   0  0  0  0  0  0  0  0  0  0  0  0
   -0.4517   17.3921  -36.0687 C   0  0  0  0  0  0  0  0  0  0  0  0
   -0.5971   18.5380  -36.8201 C   0  0  0  0  0  0  0  0  0  0  0  0
   -1.7589   19.2629  -36.6727 C   0  0  0  0  0  0  0  0  0  0  0  0
   -2.7060   18.8425  -35.8146 N   0  0  0  0  0  0  0  0  0  0  0  0
   -2.5915   17.7221  -35.0638 C   0  0  0  0  0  0  0  0  0  0  0  0
   -6.0174   17.3338  -31.1606 C   0  0  0  0  0  0  0  0  0  0  0  0
  1  2  1  0
  2  3  2  0
  3  4  1  0
  4  5  2  0
  5  6  1  0
  6  7  1  0
  7  8  1  0
  8  9  1  0
  9 10  2  0
 10 11  1  0
 11 12  2  0
 12 13  1  0
 12 14  1  0
 14 15  2  0
 15 16  1  0
 16 17  2  0
 17 18  1  0
 18 19  2  0
  6 20  2  0
 20  2  1  0
 19  9  1  0
 19 14  1  0
M  END
>  <shape_align_shape_tanimoto>  (3) 
0.60807049654795287

>  <shape_align_color_tanimoto>  (3) 
0.051133702837893272

>  <metric>  (3) 
combo

>  <metric_score>  (3) 
0.330

>  <template_pid>  (3) 
3AZB

>  <template_shape_score>  (3) 
0.608

>  <template_color_score>  (3) 
0.051

>  <template_combo_score>  (3) 
0.330

$$$$
