6MU3_shape_pose
     RDKit          3D

 45 48  0  0  0  0  0  0  0  0999 V2000
  -22.7127   39.7170  -14.0498 O   0  0  0  0  0  0  0  0  0  0  0  0
  -21.6475   38.8781  -13.8183 C   0  0  0  0  0  0  0  0  0  0  0  0
  -20.4513   39.6120  -13.2457 C   0  0  1  0  0  0  0  0  0  0  0  0
  -20.7582   40.2215  -12.0319 O   0  0  0  0  0  0  0  0  0  0  0  0
  -19.8695   41.2698  -11.7843 C   0  0  2  0  0  0  0  0  0  0  0  0
  -20.2421   42.3209  -12.6162 O   0  0  0  0  0  0  0  0  0  0  0  0
  -20.6015   43.4562  -11.9178 C   0  0  2  0  0  0  0  0  0  0  0  0
  -22.0072   43.8398  -12.3515 C   0  0  1  0  0  0  0  0  0  0  0  0
  -22.2448   45.1353  -11.8725 O   0  0  0  0  0  0  0  0  0  0  0  0
  -23.3058   45.1384  -11.0069 C   0  0  2  0  0  0  0  0  0  0  0  0
  -24.4411   46.0405  -11.3561 C   0  0  1  0  0  0  0  0  0  0  0  0
  -24.7574   46.0919  -12.6891 O   0  0  0  0  0  0  0  0  0  0  0  0
  -24.8380   47.3965  -13.1728 C   0  0  2  0  0  0  0  0  0  0  0  0
  -26.2190   47.6982  -13.7204 C   0  0  2  0  0  0  0  0  0  0  0  0
  -26.3966   46.8991  -14.8430 O   0  0  0  0  0  0  0  0  0  0  0  0
  -26.2317   49.1582  -14.1209 C   0  0  2  0  0  0  0  0  0  0  0  0
  -27.5056   49.4480  -14.6054 O   0  0  0  0  0  0  0  0  0  0  0  0
  -25.3158   49.4168  -15.1354 O   0  0  0  0  0  0  0  0  0  0  0  0
  -24.0270   49.0628  -14.7999 C   0  0  2  0  0  0  0  0  0  0  0  0
  -23.2048   49.1832  -16.0808 C   0  0  0  0  0  0  0  0  0  0  0  0
  -23.2801   50.5032  -16.5206 O   0  0  0  0  0  0  0  0  0  0  0  0
  -23.8540   47.6728  -14.2859 C   0  0  1  0  0  0  0  0  0  0  0  0
  -22.5706   47.5669  -13.7522 O   0  0  0  0  0  0  0  0  0  0  0  0
  -25.5616   45.5869  -10.6455 O   0  0  0  0  0  0  0  0  0  0  0  0
  -25.2300   45.3274   -9.3230 C   0  0  2  0  0  0  0  0  0  0  0  0
  -26.4272   45.7072   -8.4542 C   0  0  0  0  0  0  0  0  0  0  0  0
  -27.5116   44.9428   -8.8456 O   0  0  0  0  0  0  0  0  0  0  0  0
  -24.0092   46.0740   -8.8428 C   0  0  1  0  0  0  0  0  0  0  0  0
  -23.8235   45.7240   -7.5095 O   0  0  0  0  0  0  0  0  0  0  0  0
  -22.8121   45.5786   -9.6293 C   0  0  2  0  0  0  0  0  0  0  0  0
  -21.8855   46.6078   -9.7351 O   0  0  0  0  0  0  0  0  0  0  0  0
  -22.0833   43.7013  -13.6986 O   0  0  0  0  0  0  0  0  0  0  0  0
  -21.1212   44.2095  -14.4894 C   0  0  2  0  0  0  0  0  0  0  0  0
  -20.9280   43.2473  -15.6684 C   0  0  0  0  0  0  0  0  0  0  0  0
  -22.0976   43.1025  -16.4008 O   0  0  0  0  0  0  0  0  0  0  0  0
  -19.7935   44.5006  -13.9246 C   0  0  1  0  0  0  0  0  0  0  0  0
  -19.3142   45.7383  -14.3956 O   0  0  0  0  0  0  0  0  0  0  0  0
  -19.7357   44.5926  -12.4227 C   0  0  2  0  0  0  0  0  0  0  0  0
  -18.4062   44.4345  -12.0285 O   0  0  0  0  0  0  0  0  0  0  0  0
  -18.4769   40.7678  -12.0287 C   0  0  1  0  0  0  0  0  0  0  0  0
  -17.5765   41.2284  -11.0630 O   0  0  0  0  0  0  0  0  0  0  0  0
  -18.3952   39.2573  -11.9820 C   0  0  1  0  0  0  0  0  0  0  0  0
  -18.7333   38.7657  -10.7076 O   0  0  0  0  0  0  0  0  0  0  0  0
  -19.3267   38.6326  -12.9842 C   0  0  2  0  0  0  0  0  0  0  0  0
  -18.6488   38.3640  -14.1950 O   0  0  0  0  0  0  0  0  0  0  0  0
  1  2  1  0
  3  2  1  1
  3  4  1  0
  4  5  1  0
  5  6  1  6
  7  6  1  6
  7  8  1  0
  8  9  1  6
 10  9  1  6
 10 11  1  0
 11 12  1  6
 13 12  1  6
 13 14  1  0
 14 15  1  6
 14 16  1  0
 16 17  1  6
 16 18  1  0
 18 19  1  0
 19 20  1  6
 20 21  1  0
 19 22  1  0
 22 23  1  1
 11 24  1  0
 24 25  1  0
 25 26  1  1
 26 27  1  0
 25 28  1  0
 28 29  1  1
 28 30  1  0
 30 31  1  6
  8 32  1  0
 32 33  1  0
 33 34  1  6
 34 35  1  0
 33 36  1  0
 36 37  1  6
 36 38  1  0
 38 39  1  1
  5 40  1  0
 40 41  1  1
 40 42  1  0
 42 43  1  1
 42 44  1  0
 44 45  1  6
 44  3  1  0
 38  7  1  0
 30 10  1  0
 22 13  1  0
M  END
>  <shape_align_shape_tanimoto>  (1) 
0.4849126251644314

>  <shape_align_color_tanimoto>  (1) 
0.021189856717593002

>  <metric>  (1) 
shape

>  <metric_score>  (1) 
0.485

>  <template_pid>  (1) 
6MU3

>  <template_shape_score>  (1) 
0.485

>  <template_color_score>  (1) 
0.021

>  <template_combo_score>  (1) 
0.253

$$$$
6MU3_color_pose
     RDKit          3D

 45 48  0  0  0  0  0  0  0  0999 V2000
  -19.2798   45.7373  -16.0292 O   0  0  0  0  0  0  0  0  0  0  0  0
  -20.0085   46.9209  -15.8682 C   0  0  0  0  0  0  0  0  0  0  0  0
  -21.4256   46.5973  -16.3372 C   0  0  1  0  0  0  0  0  0  0  0  0
  -21.8630   45.5699  -15.5072 O   0  0  0  0  0  0  0  0  0  0  0  0
  -22.9283   46.0005  -14.7194 C   0  0  2  0  0  0  0  0  0  0  0  0
  -23.2042   45.0511  -13.7375 O   0  0  0  0  0  0  0  0  0  0  0  0
  -23.0852   45.5586  -12.4683 C   0  0  2  0  0  0  0  0  0  0  0  0
  -22.2086   44.7499  -11.5412 C   0  0  1  0  0  0  0  0  0  0  0  0
  -21.0405   44.3013  -12.0958 O   0  0  0  0  0  0  0  0  0  0  0  0
  -20.9181   42.9353  -12.2091 C   0  0  2  0  0  0  0  0  0  0  0  0
  -19.7542   42.4139  -11.4460 C   0  0  1  0  0  0  0  0  0  0  0  0
  -20.0287   42.0265  -10.1350 O   0  0  0  0  0  0  0  0  0  0  0  0
  -19.2968   42.7137   -9.1873 C   0  0  2  0  0  0  0  0  0  0  0  0
  -18.3073   41.8131   -8.4787 C   0  0  2  0  0  0  0  0  0  0  0  0
  -18.8669   40.5182   -8.4245 O   0  0  0  0  0  0  0  0  0  0  0  0
  -18.1629   42.2623   -7.0445 C   0  0  2  0  0  0  0  0  0  0  0  0
  -17.3056   41.3545   -6.3905 O   0  0  0  0  0  0  0  0  0  0  0  0
  -19.4161   42.0825   -6.4584 O   0  0  0  0  0  0  0  0  0  0  0  0
  -20.3858   42.9335   -6.9136 C   0  0  2  0  0  0  0  0  0  0  0  0
  -21.7360   42.2684   -6.7246 C   0  0  0  0  0  0  0  0  0  0  0  0
  -21.8050   41.0797   -7.4286 O   0  0  0  0  0  0  0  0  0  0  0  0
  -20.2051   43.4725   -8.2910 C   0  0  1  0  0  0  0  0  0  0  0  0
  -19.8643   44.8470   -8.2388 O   0  0  0  0  0  0  0  0  0  0  0  0
  -19.1064   41.3545  -12.0760 O   0  0  0  0  0  0  0  0  0  0  0  0
  -19.9873   40.4320  -12.6155 C   0  0  2  0  0  0  0  0  0  0  0  0
  -19.1708   39.2716  -13.1381 C   0  0  0  0  0  0  0  0  0  0  0  0
  -18.4316   38.6629  -12.1329 O   0  0  0  0  0  0  0  0  0  0  0  0
  -20.7935   40.9678  -13.7512 C   0  0  1  0  0  0  0  0  0  0  0  0
  -22.0681   40.4380  -13.8739 O   0  0  0  0  0  0  0  0  0  0  0  0
  -20.8165   42.4904  -13.6584 C   0  0  2  0  0  0  0  0  0  0  0  0
  -19.6292   42.9358  -14.2354 O   0  0  0  0  0  0  0  0  0  0  0  0
  -21.9452   45.5159  -10.4330 O   0  0  0  0  0  0  0  0  0  0  0  0
  -23.0641   46.1982   -9.9618 C   0  0  2  0  0  0  0  0  0  0  0  0
  -22.9738   46.2491   -8.4456 C   0  0  0  0  0  0  0  0  0  0  0  0
  -24.1091   46.9382   -8.0059 O   0  0  0  0  0  0  0  0  0  0  0  0
  -24.3272   45.4732  -10.3190 C   0  0  1  0  0  0  0  0  0  0  0  0
  -25.3911   46.1591   -9.7137 O   0  0  0  0  0  0  0  0  0  0  0  0
  -24.4805   45.5258  -11.8282 C   0  0  2  0  0  0  0  0  0  0  0  0
  -25.1355   44.3514  -12.1859 O   0  0  0  0  0  0  0  0  0  0  0  0
  -24.0804   46.2724  -15.6248 C   0  0  1  0  0  0  0  0  0  0  0  0
  -25.2441   46.6195  -14.9454 O   0  0  0  0  0  0  0  0  0  0  0  0
  -23.7236   47.4401  -16.5198 C   0  0  1  0  0  0  0  0  0  0  0  0
  -24.5785   48.5403  -16.3006 O   0  0  0  0  0  0  0  0  0  0  0  0
  -22.2867   47.8202  -16.3088 C   0  0  2  0  0  0  0  0  0  0  0  0
  -21.9230   48.5881  -17.4396 O   0  0  0  0  0  0  0  0  0  0  0  0
  1  2  1  0
  3  2  1  1
  3  4  1  0
  4  5  1  0
  5  6  1  1
  7  6  1  6
  7  8  1  0
  8  9  1  6
 10  9  1  6
 10 11  1  0
 11 12  1  1
 13 12  1  6
 13 14  1  0
 14 15  1  1
 14 16  1  0
 16 17  1  1
 16 18  1  0
 18 19  1  0
 19 20  1  6
 20 21  1  0
 19 22  1  0
 22 23  1  1
 11 24  1  0
 24 25  1  0
 25 26  1  6
 26 27  1  0
 25 28  1  0
 28 29  1  1
 28 30  1  0
 30 31  1  1
  8 32  1  0
 32 33  1  0
 33 34  1  1
 34 35  1  0
 33 36  1  0
 36 37  1  1
 36 38  1  0
 38 39  1  6
  5 40  1  0
 40 41  1  1
 40 42  1  0
 42 43  1  1
 42 44  1  0
 44 45  1  6
 44  3  1  0
 38  7  1  0
 30 10  1  0
 22 13  1  0
M  END
>  <shape_align_shape_tanimoto>  (2) 
0.38825206157913539

>  <shape_align_color_tanimoto>  (2) 
0.057331923125968846

>  <metric>  (2) 
color

>  <metric_score>  (2) 
0.057

>  <template_pid>  (2) 
6MU3

>  <template_shape_score>  (2) 
0.388

>  <template_color_score>  (2) 
0.057

>  <template_combo_score>  (2) 
0.223

$$$$
6MU3_combo_pose
     RDKit          3D

 45 48  0  0  0  0  0  0  0  0999 V2000
  -26.4519   43.8098  -16.5619 O   0  0  0  0  0  0  0  0  0  0  0  0
  -26.1641   43.1530  -15.3822 C   0  0  0  0  0  0  0  0  0  0  0  0
  -26.0981   44.1354  -14.2093 C   0  0  1  0  0  0  0  0  0  0  0  0
  -25.0881   45.0376  -14.5242 O   0  0  0  0  0  0  0  0  0  0  0  0
  -24.9978   46.0540  -13.5528 C   0  0  2  0  0  0  0  0  0  0  0  0
  -25.0088   45.5515  -12.2754 O   0  0  0  0  0  0  0  0  0  0  0  0
  -23.8557   45.8934  -11.5539 C   0  0  2  0  0  0  0  0  0  0  0  0
  -23.1056   44.6947  -11.1010 C   0  0  1  0  0  0  0  0  0  0  0  0
  -21.9110   44.4767  -11.7429 O   0  0  0  0  0  0  0  0  0  0  0  0
  -21.8081   43.3405  -12.4892 C   0  0  2  0  0  0  0  0  0  0  0  0
  -20.7188   42.4962  -11.8399 C   0  0  1  0  0  0  0  0  0  0  0  0
  -20.2087   41.5561  -12.7501 O   0  0  0  0  0  0  0  0  0  0  0  0
  -20.1951   40.2675  -12.2760 C   0  0  2  0  0  0  0  0  0  0  0  0
  -18.8102   39.6510  -12.2969 C   0  0  2  0  0  0  0  0  0  0  0  0
  -17.8654   40.4956  -11.7196 O   0  0  0  0  0  0  0  0  0  0  0  0
  -18.3324   39.3454  -13.6990 C   0  0  2  0  0  0  0  0  0  0  0  0
  -17.0390   39.8473  -13.9267 O   0  0  0  0  0  0  0  0  0  0  0  0
  -19.2090   39.9634  -14.5842 O   0  0  0  0  0  0  0  0  0  0  0  0
  -20.3941   39.2017  -14.5215 C   0  0  2  0  0  0  0  0  0  0  0  0
  -21.2334   39.5992  -15.7110 C   0  0  0  0  0  0  0  0  0  0  0  0
  -20.5052   39.3144  -16.8475 O   0  0  0  0  0  0  0  0  0  0  0  0
  -21.1014   39.4443  -13.1959 C   0  0  1  0  0  0  0  0  0  0  0  0
  -21.5608   38.2908  -12.6087 O   0  0  0  0  0  0  0  0  0  0  0  0
  -19.6810   43.3621  -11.5533 O   0  0  0  0  0  0  0  0  0  0  0  0
  -19.1380   44.0205  -12.6114 C   0  0  2  0  0  0  0  0  0  0  0  0
  -18.4638   45.2821  -12.0555 C   0  0  0  0  0  0  0  0  0  0  0  0
  -17.8695   46.0467  -13.0272 O   0  0  0  0  0  0  0  0  0  0  0  0
  -19.9777   44.3079  -13.7762 C   0  0  1  0  0  0  0  0  0  0  0  0
  -19.3282   44.1178  -15.0032 O   0  0  0  0  0  0  0  0  0  0  0  0
  -21.2647   43.5408  -13.8796 C   0  0  2  0  0  0  0  0  0  0  0  0
  -22.1558   44.0620  -14.7679 O   0  0  0  0  0  0  0  0  0  0  0  0
  -23.0461   44.6226   -9.7376 O   0  0  0  0  0  0  0  0  0  0  0  0
  -22.3584   45.6806   -9.1457 C   0  0  2  0  0  0  0  0  0  0  0  0
  -22.5111   45.5076   -7.6486 C   0  0  0  0  0  0  0  0  0  0  0  0
  -21.9787   44.2922   -7.2236 O   0  0  0  0  0  0  0  0  0  0  0  0
  -22.9362   47.0143   -9.5714 C   0  0  1  0  0  0  0  0  0  0  0  0
  -22.0922   47.6079  -10.4783 O   0  0  0  0  0  0  0  0  0  0  0  0
  -24.2259   46.7137  -10.3397 C   0  0  2  0  0  0  0  0  0  0  0  0
  -24.9446   45.8352   -9.4983 O   0  0  0  0  0  0  0  0  0  0  0  0
  -26.2567   46.8970  -13.7794 C   0  0  1  0  0  0  0  0  0  0  0  0
  -26.3708   47.2212  -15.1328 O   0  0  0  0  0  0  0  0  0  0  0  0
  -27.4523   46.0952  -13.3856 C   0  0  1  0  0  0  0  0  0  0  0  0
  -28.5963   46.8218  -13.7316 O   0  0  0  0  0  0  0  0  0  0  0  0
  -27.4435   44.7759  -14.0814 C   0  0  2  0  0  0  0  0  0  0  0  0
  -28.2430   43.8572  -13.3734 O   0  0  0  0  0  0  0  0  0  0  0  0
  1  2  1  0
  3  2  1  6
  3  4  1  0
  4  5  1  0
  5  6  1  1
  7  6  1  1
  7  8  1  0
  8  9  1  6
 10  9  1  1
 10 11  1  0
 11 12  1  6
 13 12  1  6
 13 14  1  0
 14 15  1  6
 14 16  1  0
 16 17  1  1
 16 18  1  0
 18 19  1  0
 19 20  1  6
 20 21  1  0
 19 22  1  0
 22 23  1  1
 11 24  1  0
 24 25  1  0
 25 26  1  1
 26 27  1  0
 25 28  1  0
 28 29  1  6
 28 30  1  0
 30 31  1  6
  8 32  1  0
 32 33  1  0
 33 34  1  1
 34 35  1  0
 33 36  1  0
 36 37  1  6
 36 38  1  0
 38 39  1  1
  5 40  1  0
 40 41  1  6
 40 42  1  0
 42 43  1  6
 42 44  1  0
 44 45  1  1
 44  3  1  0
 38  7  1  0
 30 10  1  0
 22 13  1  0
M  END
>  <shape_align_shape_tanimoto>  (3) 
0.46637160124178395

>  <shape_align_color_tanimoto>  (3) 
0.041281968260752491

>  <metric>  (3) 
combo

>  <metric_score>  (3) 
0.254

>  <template_pid>  (3) 
6MU3

>  <template_shape_score>  (3) 
0.466

>  <template_color_score>  (3) 
0.041

>  <template_combo_score>  (3) 
0.254

$$$$
