6FSE_shape_pose
     RDKit          3D

 25 27  0  0  0  0  0  0  0  0999 V2000
  -41.8824  165.7347   81.3065 C   0  0  0  0  0  0  0  0  0  0  0  0
  -43.1120  164.8633   81.3119 C   0  0  0  0  0  0  0  0  0  0  0  0
  -43.5121  164.4008   82.6140 N   0  0  1  0  0  0  0  0  0  0  0  0
  -44.0908  163.0993   82.6524 C   0  0  0  0  0  0  0  0  0  0  0  0
  -43.1597  161.9906   83.0325 C   0  0  0  0  0  0  0  0  0  0  0  0
  -41.7873  162.3202   82.8206 N   0  0  2  0  0  0  0  0  0  0  0  0
  -40.8867  161.2577   83.1335 C   0  0  0  0  0  0  0  0  0  0  0  0
  -39.6153  161.4639   82.3528 C   0  0  0  0  0  0  0  0  0  0  0  0
  -39.7225  161.0275   80.9066 C   0  0  0  0  0  0  0  0  0  0  0  0
  -40.1967  159.6654   80.8321 N   0  0  0  0  0  0  0  0  0  0  0  0
  -39.4970  158.6447   80.0914 C   0  0  0  0  0  0  0  0  0  0  0  0
  -40.0025  157.4914   80.0943 O   0  0  0  0  0  0  0  0  0  0  0  0
  -38.2689  159.0337   79.4048 C   0  0  0  0  0  0  0  0  0  0  0  0
  -37.6870  157.9329   78.7573 O   0  0  0  0  0  0  0  0  0  0  0  0
  -37.2266  156.7799   79.3126 C   0  0  0  0  0  0  0  0  0  0  0  0
  -36.6937  155.8190   78.4458 C   0  0  0  0  0  0  0  0  0  0  0  0
  -36.2029  154.6220   78.9172 C   0  0  0  0  0  0  0  0  0  0  0  0
  -36.2125  154.3129   80.2599 C   0  0  0  0  0  0  0  0  0  0  0  0
  -35.6923  153.0320   80.8053 C   0  0  0  0  0  0  0  0  0  0  0  0
  -36.7356  155.2543   81.1203 C   0  0  0  0  0  0  0  0  0  0  0  0
  -37.2330  156.4654   80.6519 C   0  0  0  0  0  0  0  0  0  0  0  0
  -41.4322  159.3651   81.5503 C   0  0  0  0  0  0  0  0  0  0  0  0
  -41.4013  159.8763   82.9586 C   0  0  0  0  0  0  0  0  0  0  0  0
  -41.4731  163.4612   83.6628 C   0  0  0  0  0  0  0  0  0  0  0  0
  -42.4866  164.5550   83.6265 C   0  0  0  0  0  0  0  0  0  0  0  0
  1  2  1  0
  3  2  1  6
  3  4  1  0
  4  5  1  0
  5  6  1  0
  6  7  1  1
  7  8  1  0
  8  9  1  0
  9 10  1  0
 10 11  1  0
 11 12  2  0
 11 13  1  0
 13 14  1  0
 14 15  1  0
 15 16  2  0
 16 17  1  0
 17 18  2  0
 18 19  1  0
 18 20  1  0
 20 21  2  0
 10 22  1  0
 22 23  1  0
  6 24  1  0
 24 25  1  0
 25  3  1  0
 23  7  1  0
 21 15  1  0
M  CHG  2   3   1   6   1
M  END
>  <shape_align_shape_tanimoto>  (1) 
0.42224495617925972

>  <shape_align_color_tanimoto>  (1) 
0.051786789102360807

>  <metric>  (1) 
shape

>  <metric_score>  (1) 
0.422

>  <template_pid>  (1) 
6FSE

>  <template_shape_score>  (1) 
0.422

>  <template_color_score>  (1) 
0.052

>  <template_combo_score>  (1) 
0.237

$$$$
6FSE_color_pose
     RDKit          3D

 25 27  0  0  0  0  0  0  0  0999 V2000
  -38.6413  160.1709   79.4262 C   0  0  0  0  0  0  0  0  0  0  0  0
  -38.8762  158.8447   78.7641 C   0  0  0  0  0  0  0  0  0  0  0  0
  -38.5419  157.7089   79.6065 N   0  0  1  0  0  0  0  0  0  0  0  0
  -39.6158  156.7290   79.5774 C   0  0  0  0  0  0  0  0  0  0  0  0
  -39.2585  155.7148   80.6335 C   0  0  0  0  0  0  0  0  0  0  0  0
  -38.0561  154.9940   80.2854 N   0  0  2  0  0  0  0  0  0  0  0  0
  -37.3645  154.5414   81.4983 C   0  0  0  0  0  0  0  0  0  0  0  0
  -36.6313  153.2455   81.2916 C   0  0  0  0  0  0  0  0  0  0  0  0
  -35.2754  153.2073   81.9061 C   0  0  0  0  0  0  0  0  0  0  0  0
  -34.5400  154.3778   81.5227 N   0  0  0  0  0  0  0  0  0  0  0  0
  -33.3352  154.4500   80.8277 C   0  0  0  0  0  0  0  0  0  0  0  0
  -32.8262  155.6333   80.6677 O   0  0  0  0  0  0  0  0  0  0  0  0
  -32.5336  153.3674   80.2411 C   0  0  0  0  0  0  0  0  0  0  0  0
  -33.1709  152.1593   79.9851 O   0  0  0  0  0  0  0  0  0  0  0  0
  -34.2084  152.0475   79.0299 C   0  0  0  0  0  0  0  0  0  0  0  0
  -34.8427  150.8463   78.7943 C   0  0  0  0  0  0  0  0  0  0  0  0
  -35.8502  150.8050   77.8420 C   0  0  0  0  0  0  0  0  0  0  0  0
  -36.2112  151.9382   77.1453 C   0  0  0  0  0  0  0  0  0  0  0  0
  -37.2928  151.8687   76.1309 C   0  0  0  0  0  0  0  0  0  0  0  0
  -35.5632  153.1297   77.3970 C   0  0  0  0  0  0  0  0  0  0  0  0
  -34.5548  153.2138   78.3369 C   0  0  0  0  0  0  0  0  0  0  0  0
  -35.1488  155.6607   81.9315 C   0  0  0  0  0  0  0  0  0  0  0  0
  -36.5975  155.5838   82.2060 C   0  0  0  0  0  0  0  0  0  0  0  0
  -37.2479  155.6097   79.3136 C   0  0  0  0  0  0  0  0  0  0  0  0
  -37.3180  157.1000   79.2121 C   0  0  0  0  0  0  0  0  0  0  0  0
  1  2  1  0
  3  2  1  6
  3  4  1  0
  4  5  1  0
  5  6  1  0
  6  7  1  1
  7  8  1  0
  8  9  1  0
  9 10  1  0
 10 11  1  0
 11 12  2  0
 11 13  1  0
 13 14  1  0
 14 15  1  0
 15 16  2  0
 16 17  1  0
 17 18  2  0
 18 19  1  0
 18 20  1  0
 20 21  2  0
 10 22  1  0
 22 23  1  0
  6 24  1  0
 24 25  1  0
 25  3  1  0
 23  7  1  0
 21 15  1  0
M  CHG  2   3   1   6   1
M  END
>  <shape_align_shape_tanimoto>  (2) 
0.23483887477570564

>  <shape_align_color_tanimoto>  (2) 
0.077038595771885654

>  <metric>  (2) 
color

>  <metric_score>  (2) 
0.077

>  <template_pid>  (2) 
6FSE

>  <template_shape_score>  (2) 
0.235

>  <template_color_score>  (2) 
0.077

>  <template_combo_score>  (2) 
0.156

$$$$
6FSE_combo_pose
     RDKit          3D

 25 27  0  0  0  0  0  0  0  0999 V2000
  -41.8824  165.7347   81.3065 C   0  0  0  0  0  0  0  0  0  0  0  0
  -43.1120  164.8633   81.3119 C   0  0  0  0  0  0  0  0  0  0  0  0
  -43.5121  164.4008   82.6140 N   0  0  1  0  0  0  0  0  0  0  0  0
  -44.0908  163.0993   82.6524 C   0  0  0  0  0  0  0  0  0  0  0  0
  -43.1597  161.9906   83.0325 C   0  0  0  0  0  0  0  0  0  0  0  0
  -41.7873  162.3202   82.8206 N   0  0  2  0  0  0  0  0  0  0  0  0
  -40.8867  161.2577   83.1335 C   0  0  0  0  0  0  0  0  0  0  0  0
  -39.6153  161.4639   82.3528 C   0  0  0  0  0  0  0  0  0  0  0  0
  -39.7225  161.0275   80.9066 C   0  0  0  0  0  0  0  0  0  0  0  0
  -40.1967  159.6654   80.8321 N   0  0  0  0  0  0  0  0  0  0  0  0
  -39.4970  158.6447   80.0914 C   0  0  0  0  0  0  0  0  0  0  0  0
  -40.0025  157.4914   80.0943 O   0  0  0  0  0  0  0  0  0  0  0  0
  -38.2689  159.0337   79.4048 C   0  0  0  0  0  0  0  0  0  0  0  0
  -37.6870  157.9329   78.7573 O   0  0  0  0  0  0  0  0  0  0  0  0
  -37.2266  156.7799   79.3126 C   0  0  0  0  0  0  0  0  0  0  0  0
  -36.6937  155.8190   78.4458 C   0  0  0  0  0  0  0  0  0  0  0  0
  -36.2029  154.6220   78.9172 C   0  0  0  0  0  0  0  0  0  0  0  0
  -36.2125  154.3129   80.2599 C   0  0  0  0  0  0  0  0  0  0  0  0
  -35.6923  153.0320   80.8053 C   0  0  0  0  0  0  0  0  0  0  0  0
  -36.7356  155.2543   81.1203 C   0  0  0  0  0  0  0  0  0  0  0  0
  -37.2330  156.4654   80.6519 C   0  0  0  0  0  0  0  0  0  0  0  0
  -41.4322  159.3651   81.5503 C   0  0  0  0  0  0  0  0  0  0  0  0
  -41.4013  159.8763   82.9586 C   0  0  0  0  0  0  0  0  0  0  0  0
  -41.4731  163.4612   83.6628 C   0  0  0  0  0  0  0  0  0  0  0  0
  -42.4866  164.5550   83.6265 C   0  0  0  0  0  0  0  0  0  0  0  0
  1  2  1  0
  3  2  1  6
  3  4  1  0
  4  5  1  0
  5  6  1  0
  6  7  1  1
  7  8  1  0
  8  9  1  0
  9 10  1  0
 10 11  1  0
 11 12  2  0
 11 13  1  0
 13 14  1  0
 14 15  1  0
 15 16  2  0
 16 17  1  0
 17 18  2  0
 18 19  1  0
 18 20  1  0
 20 21  2  0
 10 22  1  0
 22 23  1  0
  6 24  1  0
 24 25  1  0
 25  3  1  0
 23  7  1  0
 21 15  1  0
M  CHG  2   3   1   6   1
M  END
>  <shape_align_shape_tanimoto>  (3) 
0.42224495617925972

>  <shape_align_color_tanimoto>  (3) 
0.051786789102360807

>  <metric>  (3) 
combo

>  <metric_score>  (3) 
0.237

>  <template_pid>  (3) 
6FSE

>  <template_shape_score>  (3) 
0.422

>  <template_color_score>  (3) 
0.052

>  <template_combo_score>  (3) 
0.237

$$$$
