2MIP_shape_pose
     RDKit          3D

 54 55  0  0  0  0  0  0  0  0999 V2000
   14.0172   23.0386   20.4507 C   0  0  0  0  0  0  0  0  0  0  0  0
   15.3427   22.3618   20.2228 C   0  0  0  0  0  0  0  0  0  0  0  0
   16.3882   23.2996   19.7016 C   0  0  2  0  0  0  0  0  0  0  0  0
   16.6413   24.4253   20.6342 C   0  0  0  0  0  0  0  0  0  0  0  0
   16.1019   23.7514   18.2557 C   0  0  2  0  0  0  0  0  0  0  0  0
   16.0977   22.5160   17.4616 N   0  0  0  0  0  0  0  0  0  0  0  0
   14.8879   21.9422   16.9660 C   0  0  0  0  0  0  0  0  0  0  0  0
   13.8267   22.5748   17.2395 O   0  0  0  0  0  0  0  0  0  0  0  0
   14.8168   20.6953   16.2003 C   0  0  2  0  0  0  0  0  0  0  0  0
   15.1117   20.7632   14.7713 C   0  0  0  0  0  0  0  0  0  0  0  0
   16.4135   21.2740   14.2858 C   0  0  0  0  0  0  0  0  0  0  0  0
   16.6985   22.6959   14.4454 C   0  0  0  0  0  0  0  0  0  0  0  0
   15.8849   23.5953   14.7621 O   0  0  0  0  0  0  0  0  0  0  0  0
   18.0191   23.1184   14.2220 O   0  0  0  0  0  0  0  0  0  0  0  0
   13.3719   20.2909   16.3616 N   0  0  0  0  0  0  0  0  0  0  0  0
   13.0730   19.4776   17.5070 C   0  0  0  0  0  0  0  0  0  0  0  0
   14.0664   19.2215   18.2407 O   0  0  0  0  0  0  0  0  0  0  0  0
   11.7003   19.0114   17.7562 C   0  0  2  0  0  0  0  0  0  0  0  0
   11.6287   18.1049   18.9086 C   0  0  0  0  0  0  0  0  0  0  0  0
   12.0547   18.7220   20.2147 C   0  0  0  0  0  0  0  0  0  0  0  0
   11.1208   19.9001   20.4595 C   0  0  0  0  0  0  0  0  0  0  0  0
   11.6922   17.7239   21.3305 C   0  0  0  0  0  0  0  0  0  0  0  0
   10.9503   18.6458   16.5786 N   0  0  0  0  0  0  0  0  0  0  0  0
   10.6529   17.2534   16.5176 C   0  0  0  0  0  0  0  0  0  0  0  0
    9.2543   16.9015   16.0702 C   0  0  2  0  0  0  0  0  0  0  0  0
    8.8962   17.3431   14.7061 C   0  0  0  0  0  0  0  0  0  0  0  0
    7.4968   16.9674   14.3093 C   0  0  0  0  0  0  0  0  0  0  0  0
    6.4364   17.8081   14.4832 C   0  0  0  0  0  0  0  0  0  0  0  0
    5.1563   17.4336   14.1258 C   0  0  0  0  0  0  0  0  0  0  0  0
    4.8890   16.2108   13.5834 C   0  0  0  0  0  0  0  0  0  0  0  0
    5.9673   15.3482   13.4031 C   0  0  0  0  0  0  0  0  0  0  0  0
    7.2520   15.7175   13.7592 C   0  0  0  0  0  0  0  0  0  0  0  0
    8.2589   17.4825   16.9841 N   0  0  0  0  0  0  0  0  0  0  0  0
    7.8464   16.7526   18.1491 C   0  0  0  0  0  0  0  0  0  0  0  0
    8.4452   15.6233   18.2793 O   0  0  0  0  0  0  0  0  0  0  0  0
    6.8582   17.2037   19.1121 C   0  0  1  0  0  0  0  0  0  0  0  0
    6.0773   18.3580   18.7548 N   0  0  0  0  0  0  0  0  0  0  0  0
    5.8523   19.4927   19.5661 C   0  0  0  0  0  0  0  0  0  0  0  0
    6.3516   19.6162   20.7130 O   0  0  0  0  0  0  0  0  0  0  0  0
    4.9834   20.5629   19.0315 C   0  0  1  0  0  0  0  0  0  0  0  0
    4.7364   21.4942   20.1505 N   0  0  0  0  0  0  0  0  0  0  0  0
    5.5875   21.3299   17.9097 C   0  0  0  0  0  0  0  0  0  0  0  0
    6.8270   22.0657   18.2364 C   0  0  0  0  0  0  0  0  0  0  0  0
    8.0942   21.5820   18.1082 C   0  0  0  0  0  0  0  0  0  0  0  0
    9.1423   22.4351   18.4554 C   0  0  0  0  0  0  0  0  0  0  0  0
    8.9503   23.7098   18.9095 C   0  0  0  0  0  0  0  0  0  0  0  0
    7.6752   24.2008   19.0402 C   0  0  0  0  0  0  0  0  0  0  0  0
    6.6348   23.3742   18.7028 C   0  0  0  0  0  0  0  0  0  0  0  0
    5.9266   16.0213   19.4336 C   0  0  0  0  0  0  0  0  0  0  0  0
    6.7720   14.9174   20.0189 C   0  0  0  0  0  0  0  0  0  0  0  0
    5.1545   15.5758   18.2228 C   0  0  0  0  0  0  0  0  0  0  0  0
   17.0612   24.7478   17.8066 C   0  0  0  0  0  0  0  0  0  0  0  0
   17.0803   26.0157   18.4882 N   0  0  0  0  0  0  0  0  0  0  0  0
   17.8881   24.6252   16.8750 O   0  0  0  0  0  0  0  0  0  0  0  0
  1  2  1  0
  2  3  1  0
  3  4  1  1
  3  5  1  0
  5  6  1  6
  6  7  1  0
  7  8  2  0
  7  9  1  0
  9 10  1  6
 10 11  1  0
 11 12  1  0
 12 13  2  0
 12 14  1  0
  9 15  1  0
 15 16  1  0
 16 17  2  0
 16 18  1  0
 18 19  1  1
 19 20  1  0
 20 21  1  0
 20 22  1  0
 18 23  1  0
 23 24  1  0
 25 24  1  1
 25 26  1  0
 26 27  1  0
 27 28  2  0
 28 29  1  0
 29 30  2  0
 30 31  1  0
 31 32  2  0
 25 33  1  0
 33 34  1  0
 34 35  2  0
 34 36  1  0
 36 37  1  6
 37 38  1  0
 38 39  2  0
 38 40  1  0
 40 41  1  1
 40 42  1  0
 42 43  1  0
 43 44  2  0
 44 45  1  0
 45 46  2  0
 46 47  1  0
 47 48  2  0
 36 49  1  0
 49 50  1  0
 49 51  1  0
  5 52  1  0
 52 53  1  0
 52 54  2  0
 32 27  1  0
 48 43  1  0
M  CHG  3  14  -1  23   1  41   1
M  END
>  <shape_align_shape_tanimoto>  (1) 
0.47349457934279626

>  <shape_align_color_tanimoto>  (1) 
0.021109197239329622

>  <metric>  (1) 
shape

>  <metric_score>  (1) 
0.473

>  <template_pid>  (1) 
2MIP

>  <template_shape_score>  (1) 
0.473

>  <template_color_score>  (1) 
0.021

>  <template_combo_score>  (1) 
0.247

$$$$
2MIP_color_pose
     RDKit          3D

 54 55  0  0  0  0  0  0  0  0999 V2000
   12.0819   23.8499   11.9901 C   0  0  0  0  0  0  0  0  0  0  0  0
   13.3460   23.6768   12.8136 C   0  0  0  0  0  0  0  0  0  0  0  0
   13.7358   22.2238   12.7525 C   0  0  2  0  0  0  0  0  0  0  0  0
   12.6480   21.3318   13.3156 C   0  0  0  0  0  0  0  0  0  0  0  0
   15.0211   22.0245   13.4932 C   0  0  2  0  0  0  0  0  0  0  0  0
   14.8887   22.4101   14.8733 N   0  0  0  0  0  0  0  0  0  0  0  0
   15.0625   21.4711   15.9578 C   0  0  0  0  0  0  0  0  0  0  0  0
   15.3386   20.2664   15.7664 O   0  0  0  0  0  0  0  0  0  0  0  0
   14.8860   22.0544   17.3389 C   0  0  2  0  0  0  0  0  0  0  0  0
   15.7451   23.2431   17.5384 C   0  0  0  0  0  0  0  0  0  0  0  0
   15.6464   23.9057   18.8832 C   0  0  0  0  0  0  0  0  0  0  0  0
   16.0389   23.0736   20.0233 C   0  0  0  0  0  0  0  0  0  0  0  0
   15.2643   22.4488   20.7816 O   0  0  0  0  0  0  0  0  0  0  0  0
   17.4108   22.9636   20.2959 O   0  0  0  0  0  0  0  0  0  0  0  0
   15.0627   21.0307   18.3366 N   0  0  0  0  0  0  0  0  0  0  0  0
   13.9143   20.3372   18.8375 C   0  0  0  0  0  0  0  0  0  0  0  0
   12.8075   20.7035   18.3251 O   0  0  0  0  0  0  0  0  0  0  0  0
   13.9741   19.2794   19.8667 C   0  0  2  0  0  0  0  0  0  0  0  0
   14.5353   17.9777   19.4060 C   0  0  0  0  0  0  0  0  0  0  0  0
   15.9301   17.9759   18.9073 C   0  0  0  0  0  0  0  0  0  0  0  0
   16.9470   18.4112   19.9181 C   0  0  0  0  0  0  0  0  0  0  0  0
   16.2575   16.5252   18.5110 C   0  0  0  0  0  0  0  0  0  0  0  0
   12.5950   18.9761   20.2997 N   0  0  0  0  0  0  0  0  0  0  0  0
   11.9990   20.0691   20.9813 C   0  0  0  0  0  0  0  0  0  0  0  0
   10.5641   19.8487   21.4248 C   0  0  2  0  0  0  0  0  0  0  0  0
   10.5154   18.7226   22.4168 C   0  0  0  0  0  0  0  0  0  0  0  0
   11.3179   19.0333   23.6299 C   0  0  0  0  0  0  0  0  0  0  0  0
   10.6617   19.6811   24.6560 C   0  0  0  0  0  0  0  0  0  0  0  0
   11.2686   20.0473   25.8401 C   0  0  0  0  0  0  0  0  0  0  0  0
   12.6258   19.7472   26.0171 C   0  0  0  0  0  0  0  0  0  0  0  0
   13.2751   19.0967   24.9817 C   0  0  0  0  0  0  0  0  0  0  0  0
   12.6386   18.7418   23.8030 C   0  0  0  0  0  0  0  0  0  0  0  0
    9.7556   19.4456   20.2660 N   0  0  0  0  0  0  0  0  0  0  0  0
    8.7931   20.3066   19.6790 C   0  0  0  0  0  0  0  0  0  0  0  0
    8.6303   21.4599   20.1828 O   0  0  0  0  0  0  0  0  0  0  0  0
    7.9958   19.8547   18.4855 C   0  0  1  0  0  0  0  0  0  0  0  0
    8.2344   18.4665   18.1580 N   0  0  0  0  0  0  0  0  0  0  0  0
    9.2724   18.0676   17.2303 C   0  0  0  0  0  0  0  0  0  0  0  0
    9.9459   19.0054   16.7503 O   0  0  0  0  0  0  0  0  0  0  0  0
    9.4350   16.6431   16.9467 C   0  0  1  0  0  0  0  0  0  0  0  0
    8.3687   15.8042   17.4714 N   0  0  0  0  0  0  0  0  0  0  0  0
    9.7415   16.3491   15.5234 C   0  0  0  0  0  0  0  0  0  0  0  0
    8.7558   16.7882   14.5346 C   0  0  0  0  0  0  0  0  0  0  0  0
    7.6824   15.9627   14.1956 C   0  0  0  0  0  0  0  0  0  0  0  0
    6.7373   16.3654   13.2474 C   0  0  0  0  0  0  0  0  0  0  0  0
    6.8414   17.6052   12.6131 C   0  0  0  0  0  0  0  0  0  0  0  0
    7.8864   18.4064   12.9444 C   0  0  0  0  0  0  0  0  0  0  0  0
    8.8126   18.0104   13.8743 C   0  0  0  0  0  0  0  0  0  0  0  0
    6.5805   20.2879   18.4976 C   0  0  0  0  0  0  0  0  0  0  0  0
    5.7829   19.7988   19.6751 C   0  0  0  0  0  0  0  0  0  0  0  0
    6.5265   21.7950   18.4207 C   0  0  0  0  0  0  0  0  0  0  0  0
   16.1031   22.8215   12.8682 C   0  0  0  0  0  0  0  0  0  0  0  0
   16.4952   22.6744   11.5107 N   0  0  0  0  0  0  0  0  0  0  0  0
   16.6792   23.6685   13.6282 O   0  0  0  0  0  0  0  0  0  0  0  0
  1  2  1  0
  2  3  1  0
  3  4  1  1
  3  5  1  0
  5  6  1  1
  6  7  1  0
  7  8  2  0
  7  9  1  0
  9 10  1  1
 10 11  1  0
 11 12  1  0
 12 13  2  0
 12 14  1  0
  9 15  1  0
 15 16  1  0
 16 17  2  0
 16 18  1  0
 18 19  1  6
 19 20  1  0
 20 21  1  0
 20 22  1  0
 18 23  1  0
 23 24  1  0
 25 24  1  6
 25 26  1  0
 26 27  1  0
 27 28  2  0
 28 29  1  0
 29 30  2  0
 30 31  1  0
 31 32  2  0
 25 33  1  0
 33 34  1  0
 34 35  2  0
 34 36  1  0
 36 37  1  1
 37 38  1  0
 38 39  2  0
 38 40  1  0
 40 41  1  6
 40 42  1  0
 42 43  1  0
 43 44  2  0
 44 45  1  0
 45 46  2  0
 46 47  1  0
 47 48  2  0
 36 49  1  0
 49 50  1  0
 49 51  1  0
  5 52  1  0
 52 53  1  0
 52 54  2  0
 32 27  1  0
 48 43  1  0
M  CHG  3  14  -1  23   1  41   1
M  END
>  <shape_align_shape_tanimoto>  (2) 
0.38009622468685089

>  <shape_align_color_tanimoto>  (2) 
0.065533239076597805

>  <metric>  (2) 
color

>  <metric_score>  (2) 
0.066

>  <template_pid>  (2) 
2MIP

>  <template_shape_score>  (2) 
0.380

>  <template_color_score>  (2) 
0.066

>  <template_combo_score>  (2) 
0.223

$$$$
2MIP_combo_pose
     RDKit          3D

 54 55  0  0  0  0  0  0  0  0999 V2000
   13.7136   21.7437   24.5684 C   0  0  0  0  0  0  0  0  0  0  0  0
   14.0013   22.5921   23.3560 C   0  0  0  0  0  0  0  0  0  0  0  0
   15.4232   22.3234   22.8879 C   0  0  2  0  0  0  0  0  0  0  0  0
   16.3168   22.6974   24.0419 C   0  0  0  0  0  0  0  0  0  0  0  0
   15.7624   23.1427   21.6970 C   0  0  2  0  0  0  0  0  0  0  0  0
   14.8851   22.8947   20.5689 N   0  0  0  0  0  0  0  0  0  0  0  0
   14.2545   23.9796   19.8696 C   0  0  0  0  0  0  0  0  0  0  0  0
   14.5404   25.1371   20.3281 O   0  0  0  0  0  0  0  0  0  0  0  0
   13.3713   23.7830   18.7413 C   0  0  2  0  0  0  0  0  0  0  0  0
   11.9324   23.9955   18.9644 C   0  0  0  0  0  0  0  0  0  0  0  0
   11.4409   25.2796   19.4563 C   0  0  0  0  0  0  0  0  0  0  0  0
   11.8128   25.5327   20.8497 C   0  0  0  0  0  0  0  0  0  0  0  0
   12.1317   24.6457   21.6736 O   0  0  0  0  0  0  0  0  0  0  0  0
   11.8240   26.8341   21.3271 O   0  0  0  0  0  0  0  0  0  0  0  0
   13.4896   22.3702   18.2829 N   0  0  0  0  0  0  0  0  0  0  0  0
   14.2074   22.0717   17.0924 C   0  0  0  0  0  0  0  0  0  0  0  0
   14.6948   23.1145   16.5417 O   0  0  0  0  0  0  0  0  0  0  0  0
   14.3834   20.7387   16.5393 C   0  0  2  0  0  0  0  0  0  0  0  0
   13.9638   20.4810   15.1572 C   0  0  0  0  0  0  0  0  0  0  0  0
   14.5373   21.1596   14.0138 C   0  0  0  0  0  0  0  0  0  0  0  0
   14.4443   22.6096   13.8341 C   0  0  0  0  0  0  0  0  0  0  0  0
   14.0158   20.5064   12.7166 C   0  0  0  0  0  0  0  0  0  0  0  0
   13.9402   19.7312   17.4495 N   0  0  0  0  0  0  0  0  0  0  0  0
   13.2268   18.6357   16.8291 C   0  0  0  0  0  0  0  0  0  0  0  0
   12.4884   17.8723   17.9297 C   0  0  2  0  0  0  0  0  0  0  0  0
   11.7434   16.7273   17.2970 C   0  0  0  0  0  0  0  0  0  0  0  0
   10.7476   17.2048   16.2974 C   0  0  0  0  0  0  0  0  0  0  0  0
   11.0667   17.3579   14.9666 C   0  0  0  0  0  0  0  0  0  0  0  0
   10.1599   17.8025   14.0379 C   0  0  0  0  0  0  0  0  0  0  0  0
    8.8769   18.1132   14.4254 C   0  0  0  0  0  0  0  0  0  0  0  0
    8.5508   17.9637   15.7466 C   0  0  0  0  0  0  0  0  0  0  0  0
    9.4540   17.5174   16.6925 C   0  0  0  0  0  0  0  0  0  0  0  0
   11.5620   18.8173   18.5325 N   0  0  0  0  0  0  0  0  0  0  0  0
   11.7772   19.1534   19.8711 C   0  0  0  0  0  0  0  0  0  0  0  0
   12.7224   18.6721   20.5452 O   0  0  0  0  0  0  0  0  0  0  0  0
   10.9159   20.1131   20.6470 C   0  0  1  0  0  0  0  0  0  0  0  0
    9.9166   20.6240   19.7925 N   0  0  0  0  0  0  0  0  0  0  0  0
    8.6112   21.0164   19.9409 C   0  0  0  0  0  0  0  0  0  0  0  0
    7.9159   21.0027   20.9623 O   0  0  0  0  0  0  0  0  0  0  0  0
    7.8669   21.5469   18.7291 C   0  0  1  0  0  0  0  0  0  0  0  0
    8.7200   21.6519   17.5849 N   0  0  0  0  0  0  0  0  0  0  0  0
    6.7341   20.6430   18.3535 C   0  0  0  0  0  0  0  0  0  0  0  0
    5.7234   20.4595   19.3800 C   0  0  0  0  0  0  0  0  0  0  0  0
    5.7340   19.4616   20.3281 C   0  0  0  0  0  0  0  0  0  0  0  0
    4.7268   19.3541   21.2781 C   0  0  0  0  0  0  0  0  0  0  0  0
    3.7042   20.2654   21.2639 C   0  0  0  0  0  0  0  0  0  0  0  0
    3.6668   21.2812   20.3211 C   0  0  0  0  0  0  0  0  0  0  0  0
    4.6690   21.3656   19.3978 C   0  0  0  0  0  0  0  0  0  0  0  0
   10.5326   19.4582   21.9362 C   0  0  0  0  0  0  0  0  0  0  0  0
    9.7873   20.3850   22.8213 C   0  0  0  0  0  0  0  0  0  0  0  0
    9.8601   18.1261   21.8109 C   0  0  0  0  0  0  0  0  0  0  0  0
   17.1476   22.7579   21.2772 C   0  0  0  0  0  0  0  0  0  0  0  0
   18.2580   22.8749   22.1321 N   0  0  0  0  0  0  0  0  0  0  0  0
   17.2541   22.3220   20.1056 O   0  0  0  0  0  0  0  0  0  0  0  0
  1  2  1  0
  2  3  1  0
  3  4  1  1
  3  5  1  0
  5  6  1  6
  6  7  1  0
  7  8  2  0
  7  9  1  0
  9 10  1  1
 10 11  1  0
 11 12  1  0
 12 13  2  0
 12 14  1  0
  9 15  1  0
 15 16  1  0
 16 17  2  0
 16 18  1  0
 18 19  1  6
 19 20  1  0
 20 21  1  0
 20 22  1  0
 18 23  1  0
 23 24  1  0
 25 24  1  6
 25 26  1  0
 26 27  1  0
 27 28  2  0
 28 29  1  0
 29 30  2  0
 30 31  1  0
 31 32  2  0
 25 33  1  0
 33 34  1  0
 34 35  2  0
 34 36  1  0
 36 37  1  6
 37 38  1  0
 38 39  2  0
 38 40  1  0
 40 41  1  6
 40 42  1  0
 42 43  1  0
 43 44  2  0
 44 45  1  0
 45 46  2  0
 46 47  1  0
 47 48  2  0
 36 49  1  0
 49 50  1  0
 49 51  1  0
  5 52  1  0
 52 53  1  0
 52 54  2  0
 32 27  1  0
 48 43  1  0
M  CHG  3  14  -1  23   1  41   1
M  END
>  <shape_align_shape_tanimoto>  (3) 
0.43613576314205399

>  <shape_align_color_tanimoto>  (3) 
0.059766420962032052

>  <metric>  (3) 
combo

>  <metric_score>  (3) 
0.248

>  <template_pid>  (3) 
2MIP

>  <template_shape_score>  (3) 
0.436

>  <template_color_score>  (3) 
0.060

>  <template_combo_score>  (3) 
0.248

$$$$
