4GII_shape_pose
     RDKit          3D

 25 27  0  0  0  0  0  0  0  0999 V2000
  -18.6591   11.1206  -17.9125 N   0  0  0  0  0  0  0  0  0  0  0  0
  -19.4466   10.2925  -17.7322 C   0  0  0  0  0  0  0  0  0  0  0  0
  -20.4136    9.2675  -17.4871 C   0  0  0  0  0  0  0  0  0  0  0  0
  -20.7971    8.3618  -18.4469 C   0  0  0  0  0  0  0  0  0  0  0  0
  -21.7415    7.3723  -18.1849 C   0  0  0  0  0  0  0  0  0  0  0  0
  -22.1235    6.3011  -19.5099 Cl  0  0  0  0  0  0  0  0  0  0  0  0
  -22.3468    7.2539  -16.9253 C   0  0  0  0  0  0  0  0  0  0  0  0
  -23.2908    6.1877  -16.7620 C   0  0  0  0  0  0  0  0  0  0  0  0
  -23.3087    5.3274  -17.7147 O   0  0  0  0  0  0  0  0  0  0  0  0
  -24.1938    5.9541  -15.7164 N   0  0  0  0  0  0  0  0  0  0  0  0
  -25.1114    4.8829  -15.5859 C   0  0  0  0  0  0  0  0  0  0  0  0
  -25.9285    4.8512  -14.4388 C   0  0  0  0  0  0  0  0  0  0  0  0
  -26.8483    3.8540  -14.2217 C   0  0  0  0  0  0  0  0  0  0  0  0
  -26.9776    2.8683  -15.1361 N   0  0  0  0  0  0  0  0  0  0  0  0
  -26.2317    2.8335  -16.2544 C   0  0  0  0  0  0  0  0  0  0  0  0
  -26.3835    1.7859  -17.2054 N   0  0  0  0  0  0  0  0  0  0  0  0
  -27.3444    0.7891  -16.9286 C   0  0  0  0  0  0  0  0  0  0  0  0
  -28.0248    0.8552  -15.8700 O   0  0  0  0  0  0  0  0  0  0  0  0
  -27.5082   -0.3059  -17.9152 C   0  0  0  0  0  0  0  0  0  0  0  0
  -26.1939   -0.9008  -18.5105 C   0  0  0  0  0  0  0  0  0  0  0  0
  -27.1467   -0.1029  -19.3194 C   0  0  0  0  0  0  0  0  0  0  0  0
  -25.2951    3.8619  -16.4608 C   0  0  0  0  0  0  0  0  0  0  0  0
  -21.9487    8.1654  -15.9868 C   0  0  0  0  0  0  0  0  0  0  0  0
  -22.5724    8.1463  -14.3584 Cl  0  0  0  0  0  0  0  0  0  0  0  0
  -20.9973    9.1618  -16.2530 C   0  0  0  0  0  0  0  0  0  0  0  0
  1  2  3  0
  2  3  1  0
  3  4  2  0
  4  5  1  0
  5  6  1  0
  5  7  2  0
  7  8  1  0
  8  9  2  0
  8 10  1  0
 10 11  1  0
 11 12  2  0
 12 13  1  0
 13 14  2  0
 14 15  1  0
 15 16  1  0
 16 17  1  0
 17 18  2  0
 17 19  1  0
 19 20  1  0
 20 21  1  0
 15 22  2  0
  7 23  1  0
 23 24  1  0
 23 25  2  0
 25  3  1  0
 22 11  1  0
 21 19  1  0
M  END
>  <shape_align_shape_tanimoto>  (1) 
0.80436449004100241

>  <shape_align_color_tanimoto>  (1) 
0.07172817140025893

>  <metric>  (1) 
shape

>  <metric_score>  (1) 
0.804

>  <template_pid>  (1) 
4GII

>  <template_shape_score>  (1) 
0.804

>  <template_color_score>  (1) 
0.072

>  <template_combo_score>  (1) 
0.438

$$$$
4GII_color_pose
     RDKit          3D

 25 27  0  0  0  0  0  0  0  0999 V2000
  -27.9747   -3.3556  -20.0148 N   0  0  0  0  0  0  0  0  0  0  0  0
  -27.6986   -2.3752  -19.4598 C   0  0  0  0  0  0  0  0  0  0  0  0
  -27.3786   -1.1707  -18.7642 C   0  0  0  0  0  0  0  0  0  0  0  0
  -26.6773   -0.1375  -19.3262 C   0  0  0  0  0  0  0  0  0  0  0  0
  -26.3843    1.0319  -18.6029 C   0  0  0  0  0  0  0  0  0  0  0  0
  -25.5211    2.2601  -19.4869 Cl  0  0  0  0  0  0  0  0  0  0  0  0
  -26.7848    1.1938  -17.3019 C   0  0  0  0  0  0  0  0  0  0  0  0
  -26.5007    2.3372  -16.4581 C   0  0  0  0  0  0  0  0  0  0  0  0
  -27.2118    2.4041  -15.3926 O   0  0  0  0  0  0  0  0  0  0  0  0
  -25.5705    3.3505  -16.6515 N   0  0  0  0  0  0  0  0  0  0  0  0
  -25.3111    4.4684  -15.8152 C   0  0  0  0  0  0  0  0  0  0  0  0
  -25.9589    4.7367  -14.6382 C   0  0  0  0  0  0  0  0  0  0  0  0
  -25.6280    5.8682  -13.8867 C   0  0  0  0  0  0  0  0  0  0  0  0
  -24.6748    6.7032  -14.3073 N   0  0  0  0  0  0  0  0  0  0  0  0
  -24.0009    6.4974  -15.4534 C   0  0  0  0  0  0  0  0  0  0  0  0
  -23.0150    7.4536  -15.7896 N   0  0  0  0  0  0  0  0  0  0  0  0
  -22.1947    7.4325  -16.9404 C   0  0  0  0  0  0  0  0  0  0  0  0
  -22.2499    6.5412  -17.8151 O   0  0  0  0  0  0  0  0  0  0  0  0
  -21.1932    8.5178  -17.1603 C   0  0  0  0  0  0  0  0  0  0  0  0
  -21.0341    8.9220  -18.6203 C   0  0  0  0  0  0  0  0  0  0  0  0
  -19.9461    8.1979  -17.9495 C   0  0  0  0  0  0  0  0  0  0  0  0
  -24.3255    5.3927  -16.1850 C   0  0  0  0  0  0  0  0  0  0  0  0
  -27.4993    0.1244  -16.7534 C   0  0  0  0  0  0  0  0  0  0  0  0
  -28.0806    0.1856  -15.0932 Cl  0  0  0  0  0  0  0  0  0  0  0  0
  -27.7879   -1.0218  -17.4602 C   0  0  0  0  0  0  0  0  0  0  0  0
  1  2  3  0
  2  3  1  0
  3  4  2  0
  4  5  1  0
  5  6  1  0
  5  7  2  0
  7  8  1  0
  8  9  2  0
  8 10  1  0
 10 11  1  0
 11 12  2  0
 12 13  1  0
 13 14  2  0
 14 15  1  0
 15 16  1  0
 16 17  1  0
 17 18  2  0
 17 19  1  0
 19 20  1  0
 20 21  1  0
 15 22  2  0
  7 23  1  0
 23 24  1  0
 23 25  2  0
 25  3  1  0
 22 11  1  0
 21 19  1  0
M  END
>  <shape_align_shape_tanimoto>  (2) 
0.7684128982277717

>  <shape_align_color_tanimoto>  (2) 
0.089746411538825122

>  <metric>  (2) 
color

>  <metric_score>  (2) 
0.090

>  <template_pid>  (2) 
4GII

>  <template_shape_score>  (2) 
0.768

>  <template_color_score>  (2) 
0.090

>  <template_combo_score>  (2) 
0.429

$$$$
4GII_combo_pose
     RDKit          3D

 25 27  0  0  0  0  0  0  0  0999 V2000
  -18.6591   11.1206  -17.9125 N   0  0  0  0  0  0  0  0  0  0  0  0
  -19.4466   10.2925  -17.7322 C   0  0  0  0  0  0  0  0  0  0  0  0
  -20.4136    9.2675  -17.4871 C   0  0  0  0  0  0  0  0  0  0  0  0
  -20.7971    8.3618  -18.4469 C   0  0  0  0  0  0  0  0  0  0  0  0
  -21.7415    7.3723  -18.1849 C   0  0  0  0  0  0  0  0  0  0  0  0
  -22.1235    6.3011  -19.5099 Cl  0  0  0  0  0  0  0  0  0  0  0  0
  -22.3468    7.2539  -16.9253 C   0  0  0  0  0  0  0  0  0  0  0  0
  -23.2908    6.1877  -16.7620 C   0  0  0  0  0  0  0  0  0  0  0  0
  -23.3087    5.3274  -17.7147 O   0  0  0  0  0  0  0  0  0  0  0  0
  -24.1938    5.9541  -15.7164 N   0  0  0  0  0  0  0  0  0  0  0  0
  -25.1114    4.8829  -15.5859 C   0  0  0  0  0  0  0  0  0  0  0  0
  -25.9285    4.8512  -14.4388 C   0  0  0  0  0  0  0  0  0  0  0  0
  -26.8483    3.8540  -14.2217 C   0  0  0  0  0  0  0  0  0  0  0  0
  -26.9776    2.8683  -15.1361 N   0  0  0  0  0  0  0  0  0  0  0  0
  -26.2317    2.8335  -16.2544 C   0  0  0  0  0  0  0  0  0  0  0  0
  -26.3835    1.7859  -17.2054 N   0  0  0  0  0  0  0  0  0  0  0  0
  -27.3444    0.7891  -16.9286 C   0  0  0  0  0  0  0  0  0  0  0  0
  -28.0248    0.8552  -15.8700 O   0  0  0  0  0  0  0  0  0  0  0  0
  -27.5082   -0.3059  -17.9152 C   0  0  0  0  0  0  0  0  0  0  0  0
  -26.1939   -0.9008  -18.5105 C   0  0  0  0  0  0  0  0  0  0  0  0
  -27.1467   -0.1029  -19.3194 C   0  0  0  0  0  0  0  0  0  0  0  0
  -25.2951    3.8619  -16.4608 C   0  0  0  0  0  0  0  0  0  0  0  0
  -21.9487    8.1654  -15.9868 C   0  0  0  0  0  0  0  0  0  0  0  0
  -22.5724    8.1463  -14.3584 Cl  0  0  0  0  0  0  0  0  0  0  0  0
  -20.9973    9.1618  -16.2530 C   0  0  0  0  0  0  0  0  0  0  0  0
  1  2  3  0
  2  3  1  0
  3  4  2  0
  4  5  1  0
  5  6  1  0
  5  7  2  0
  7  8  1  0
  8  9  2  0
  8 10  1  0
 10 11  1  0
 11 12  2  0
 12 13  1  0
 13 14  2  0
 14 15  1  0
 15 16  1  0
 16 17  1  0
 17 18  2  0
 17 19  1  0
 19 20  1  0
 20 21  1  0
 15 22  2  0
  7 23  1  0
 23 24  1  0
 23 25  2  0
 25  3  1  0
 22 11  1  0
 21 19  1  0
M  END
>  <shape_align_shape_tanimoto>  (3) 
0.80436449004100241

>  <shape_align_color_tanimoto>  (3) 
0.07172817140025893

>  <metric>  (3) 
combo

>  <metric_score>  (3) 
0.438

>  <template_pid>  (3) 
4GII

>  <template_shape_score>  (3) 
0.804

>  <template_color_score>  (3) 
0.072

>  <template_combo_score>  (3) 
0.438

$$$$
