5ZA9_shape_pose
     RDKit          3D

 29 32  0  0  0  0  0  0  0  0999 V2000
   -2.1295  -34.5829  -10.2943 N   0  0  0  0  0  0  0  0  0  0  0  0
   -1.0533  -33.8990   -9.5954 C   0  0  0  0  0  0  0  0  0  0  0  0
   -0.5149  -34.4163   -8.5575 N   0  0  0  0  0  0  0  0  0  0  0  0
   -0.6853  -32.6518  -10.1681 N   0  0  0  0  0  0  0  0  0  0  0  0
    0.3453  -31.8793   -9.5932 C   0  0  0  0  0  0  0  0  0  0  0  0
    0.9835  -32.2201   -8.5810 O   0  0  0  0  0  0  0  0  0  0  0  0
    0.6928  -30.6049  -10.2114 C   0  0  0  0  0  0  0  0  0  0  0  0
    0.0535  -30.1589  -11.3088 N   0  0  0  0  0  0  0  0  0  0  0  0
    0.3410  -28.9900  -11.9121 C   0  0  0  0  0  0  0  0  0  0  0  0
   -0.3779  -28.5315  -13.0775 C   0  0  0  0  0  0  0  0  0  0  0  0
   -1.3820  -29.2689  -13.6842 C   0  0  0  0  0  0  0  0  0  0  0  0
   -1.8662  -28.5610  -14.7648 C   0  0  0  0  0  0  0  0  0  0  0  0
   -2.8377  -28.7828  -15.7162 C   0  0  0  0  0  0  0  0  0  0  0  0
   -3.0788  -27.8384  -16.6929 C   0  0  0  0  0  0  0  0  0  0  0  0
   -2.3386  -26.6591  -16.7168 C   0  0  0  0  0  0  0  0  0  0  0  0
   -1.3758  -26.4698  -15.7514 C   0  0  0  0  0  0  0  0  0  0  0  0
   -1.1081  -27.3855  -14.7654 C   0  0  0  0  0  0  0  0  0  0  0  0
   -0.2648  -27.4274  -13.7657 O   0  0  0  0  0  0  0  0  0  0  0  0
    1.3487  -28.2369  -11.3496 C   0  0  0  0  0  0  0  0  0  0  0  0
    1.7883  -26.9915  -11.8751 N   0  0  0  0  0  0  0  0  0  0  0  0
    2.4488  -26.9870  -13.1790 C   0  0  0  0  0  0  0  0  0  0  0  0
    3.9430  -26.7632  -12.8970 C   0  0  0  0  0  0  0  0  0  0  0  0
    4.1549  -25.2708  -12.8517 C   0  0  0  0  0  0  0  0  0  0  0  0
    3.5790  -24.6427  -11.6179 C   0  0  0  0  0  0  0  0  0  0  0  0
    2.0931  -24.6391  -11.5712 C   0  0  0  0  0  0  0  0  0  0  0  0
    1.4935  -25.8788  -10.9875 C   0  0  0  0  0  0  0  0  0  0  0  0
    2.0111  -28.6697  -10.2355 N   0  0  0  0  0  0  0  0  0  0  0  0
    1.7016  -29.8447   -9.6521 C   0  0  0  0  0  0  0  0  0  0  0  0
    2.3920  -30.2971   -8.4895 N   0  0  0  0  0  0  0  0  0  0  0  0
  1  2  1  0
  2  3  2  0
  2  4  1  0
  4  5  1  0
  5  6  2  0
  5  7  1  0
  7  8  2  0
  8  9  1  0
  9 10  1  0
 10 11  2  0
 11 12  1  0
 12 13  2  0
 13 14  1  0
 14 15  2  0
 15 16  1  0
 16 17  2  0
 17 18  1  0
  9 19  2  0
 19 20  1  0
 20 21  1  0
 21 22  1  0
 22 23  1  0
 23 24  1  0
 24 25  1  0
 25 26  1  0
 19 27  1  0
 27 28  2  0
 28 29  1  0
 28  7  1  0
 18 10  1  0
 26 20  1  0
 17 12  1  0
M  CHG  1   3   1
M  END
>  <shape_align_shape_tanimoto>  (1) 
0.25970067934016478

>  <shape_align_color_tanimoto>  (1) 
0.0034640889177944786

>  <metric>  (1) 
shape

>  <metric_score>  (1) 
0.260

>  <template_pid>  (1) 
5ZA9

>  <template_shape_score>  (1) 
0.260

>  <template_color_score>  (1) 
0.003

>  <template_combo_score>  (1) 
0.132

$$$$
5ZA9_color_pose
     RDKit          3D

 29 32  0  0  0  0  0  0  0  0999 V2000
   -0.2425  -19.8284   -5.0744 N   0  0  0  0  0  0  0  0  0  0  0  0
    0.6350  -19.6795   -6.2108 C   0  0  0  0  0  0  0  0  0  0  0  0
    1.1664  -18.5334   -6.3652 N   0  0  0  0  0  0  0  0  0  0  0  0
    0.8052  -20.8167   -7.0211 N   0  0  0  0  0  0  0  0  0  0  0  0
    1.6488  -20.7367   -8.1458 C   0  0  0  0  0  0  0  0  0  0  0  0
    2.2655  -19.6976   -8.4721 O   0  0  0  0  0  0  0  0  0  0  0  0
    1.8302  -21.9104   -8.9897 C   0  0  0  0  0  0  0  0  0  0  0  0
    1.2000  -23.0597   -8.7001 N   0  0  0  0  0  0  0  0  0  0  0  0
    1.3307  -24.1810   -9.4478 C   0  0  0  0  0  0  0  0  0  0  0  0
    0.5591  -25.3532   -9.0920 C   0  0  0  0  0  0  0  0  0  0  0  0
    0.3292  -26.5360   -9.7449 C   0  0  0  0  0  0  0  0  0  0  0  0
   -0.5015  -27.3365   -8.9508 C   0  0  0  0  0  0  0  0  0  0  0  0
   -1.0347  -28.5969   -9.1180 C   0  0  0  0  0  0  0  0  0  0  0  0
   -1.8322  -29.0911   -8.1078 C   0  0  0  0  0  0  0  0  0  0  0  0
   -2.0723  -28.3337   -6.9828 C   0  0  0  0  0  0  0  0  0  0  0  0
   -1.5342  -27.0595   -6.8121 C   0  0  0  0  0  0  0  0  0  0  0  0
   -0.7336  -26.5677   -7.8301 C   0  0  0  0  0  0  0  0  0  0  0  0
   -0.1080  -25.4516   -7.9625 O   0  0  0  0  0  0  0  0  0  0  0  0
    2.1574  -24.0864  -10.5382 C   0  0  0  0  0  0  0  0  0  0  0  0
    2.4581  -25.1819  -11.3882 N   0  0  0  0  0  0  0  0  0  0  0  0
    3.3412  -26.1508  -10.7500 C   0  0  0  0  0  0  0  0  0  0  0  0
    4.7840  -25.8689  -11.0718 C   0  0  0  0  0  0  0  0  0  0  0  0
    4.9937  -25.4149  -12.4983 C   0  0  0  0  0  0  0  0  0  0  0  0
    4.0606  -26.1064  -13.4384 C   0  0  0  0  0  0  0  0  0  0  0  0
    2.9268  -25.1675  -13.7904 C   0  0  0  0  0  0  0  0  0  0  0  0
    1.8635  -25.1533  -12.7116 C   0  0  0  0  0  0  0  0  0  0  0  0
    2.8033  -22.9202  -10.8429 N   0  0  0  0  0  0  0  0  0  0  0  0
    2.6538  -21.8237  -10.0839 C   0  0  0  0  0  0  0  0  0  0  0  0
    3.3205  -20.6185  -10.3977 N   0  0  0  0  0  0  0  0  0  0  0  0
  1  2  1  0
  2  3  2  0
  2  4  1  0
  4  5  1  0
  5  6  2  0
  5  7  1  0
  7  8  2  0
  8  9  1  0
  9 10  1  0
 10 11  2  0
 11 12  1  0
 12 13  2  0
 13 14  1  0
 14 15  2  0
 15 16  1  0
 16 17  2  0
 17 18  1  0
  9 19  2  0
 19 20  1  0
 20 21  1  0
 21 22  1  0
 22 23  1  0
 23 24  1  0
 24 25  1  0
 25 26  1  0
 19 27  1  0
 27 28  2  0
 28 29  1  0
 28  7  1  0
 18 10  1  0
 26 20  1  0
 17 12  1  0
M  CHG  1   3   1
M  END
>  <shape_align_shape_tanimoto>  (2) 
0.24409463225964081

>  <shape_align_color_tanimoto>  (2) 
0.045140180163339413

>  <metric>  (2) 
color

>  <metric_score>  (2) 
0.045

>  <template_pid>  (2) 
5ZA9

>  <template_shape_score>  (2) 
0.244

>  <template_color_score>  (2) 
0.045

>  <template_combo_score>  (2) 
0.145

$$$$
5ZA9_combo_pose
     RDKit          3D

 29 32  0  0  0  0  0  0  0  0999 V2000
   -0.2425  -19.8284   -5.0744 N   0  0  0  0  0  0  0  0  0  0  0  0
    0.6350  -19.6795   -6.2108 C   0  0  0  0  0  0  0  0  0  0  0  0
    1.1664  -18.5334   -6.3652 N   0  0  0  0  0  0  0  0  0  0  0  0
    0.8052  -20.8167   -7.0211 N   0  0  0  0  0  0  0  0  0  0  0  0
    1.6488  -20.7367   -8.1458 C   0  0  0  0  0  0  0  0  0  0  0  0
    2.2655  -19.6976   -8.4721 O   0  0  0  0  0  0  0  0  0  0  0  0
    1.8302  -21.9104   -8.9897 C   0  0  0  0  0  0  0  0  0  0  0  0
    1.2000  -23.0597   -8.7001 N   0  0  0  0  0  0  0  0  0  0  0  0
    1.3307  -24.1810   -9.4478 C   0  0  0  0  0  0  0  0  0  0  0  0
    0.5591  -25.3532   -9.0920 C   0  0  0  0  0  0  0  0  0  0  0  0
    0.3292  -26.5360   -9.7449 C   0  0  0  0  0  0  0  0  0  0  0  0
   -0.5015  -27.3365   -8.9508 C   0  0  0  0  0  0  0  0  0  0  0  0
   -1.0347  -28.5969   -9.1180 C   0  0  0  0  0  0  0  0  0  0  0  0
   -1.8322  -29.0911   -8.1078 C   0  0  0  0  0  0  0  0  0  0  0  0
   -2.0723  -28.3337   -6.9828 C   0  0  0  0  0  0  0  0  0  0  0  0
   -1.5342  -27.0595   -6.8121 C   0  0  0  0  0  0  0  0  0  0  0  0
   -0.7336  -26.5677   -7.8301 C   0  0  0  0  0  0  0  0  0  0  0  0
   -0.1080  -25.4516   -7.9625 O   0  0  0  0  0  0  0  0  0  0  0  0
    2.1574  -24.0864  -10.5382 C   0  0  0  0  0  0  0  0  0  0  0  0
    2.4581  -25.1819  -11.3882 N   0  0  0  0  0  0  0  0  0  0  0  0
    3.3412  -26.1508  -10.7500 C   0  0  0  0  0  0  0  0  0  0  0  0
    4.7840  -25.8689  -11.0718 C   0  0  0  0  0  0  0  0  0  0  0  0
    4.9937  -25.4149  -12.4983 C   0  0  0  0  0  0  0  0  0  0  0  0
    4.0606  -26.1064  -13.4384 C   0  0  0  0  0  0  0  0  0  0  0  0
    2.9268  -25.1675  -13.7904 C   0  0  0  0  0  0  0  0  0  0  0  0
    1.8635  -25.1533  -12.7116 C   0  0  0  0  0  0  0  0  0  0  0  0
    2.8033  -22.9202  -10.8429 N   0  0  0  0  0  0  0  0  0  0  0  0
    2.6538  -21.8237  -10.0839 C   0  0  0  0  0  0  0  0  0  0  0  0
    3.3205  -20.6185  -10.3977 N   0  0  0  0  0  0  0  0  0  0  0  0
  1  2  1  0
  2  3  2  0
  2  4  1  0
  4  5  1  0
  5  6  2  0
  5  7  1  0
  7  8  2  0
  8  9  1  0
  9 10  1  0
 10 11  2  0
 11 12  1  0
 12 13  2  0
 13 14  1  0
 14 15  2  0
 15 16  1  0
 16 17  2  0
 17 18  1  0
  9 19  2  0
 19 20  1  0
 20 21  1  0
 21 22  1  0
 22 23  1  0
 23 24  1  0
 24 25  1  0
 25 26  1  0
 19 27  1  0
 27 28  2  0
 28 29  1  0
 28  7  1  0
 18 10  1  0
 26 20  1  0
 17 12  1  0
M  CHG  1   3   1
M  END
>  <shape_align_shape_tanimoto>  (3) 
0.24409463225964081

>  <shape_align_color_tanimoto>  (3) 
0.045140180163339413

>  <metric>  (3) 
combo

>  <metric_score>  (3) 
0.145

>  <template_pid>  (3) 
5ZA9

>  <template_shape_score>  (3) 
0.244

>  <template_color_score>  (3) 
0.045

>  <template_combo_score>  (3) 
0.145

$$$$
