4RZ1_shape_pose
     RDKit          3D

 37 39  0  0  0  0  0  0  0  0999 V2000
  -14.9981   59.2428   37.6582 C   0  0  0  0  0  0  0  0  0  0  0  0
  -13.9584   59.9442   37.1127 O   0  0  0  0  0  0  0  0  0  0  0  0
  -14.2967   60.8037   36.1121 C   0  0  0  0  0  0  0  0  0  0  0  0
  -15.2757   61.8942   36.5243 C   0  0  0  0  0  0  0  0  0  0  0  0
  -15.5040   62.7285   35.2837 C   0  0  0  0  0  0  0  0  0  0  0  0
  -16.3558   63.7726   35.4612 O   0  0  0  0  0  0  0  0  0  0  0  0
  -17.6520   63.9420   35.7985 C   0  0  0  0  0  0  0  0  0  0  0  0
  -18.5769   62.9595   36.0695 C   0  0  0  0  0  0  0  0  0  0  0  0
  -19.8872   63.2065   36.4134 C   0  0  0  0  0  0  0  0  0  0  0  0
  -20.8766   62.1821   36.6751 C   0  0  0  0  0  0  0  0  0  0  0  0
  -21.8833   62.2033   35.8642 O   0  0  0  0  0  0  0  0  0  0  0  0
  -20.8081   61.2107   37.7100 N   0  0  0  0  0  0  0  0  0  0  0  0
  -19.7996   61.0500   38.6794 C   0  0  0  0  0  0  0  0  0  0  0  0
  -19.8080   61.7253   39.9667 C   0  0  2  0  0  0  0  0  0  0  0  0
  -20.9967   61.4381   40.8460 C   0  0  0  0  0  0  0  0  0  0  0  0
  -21.6592   62.7349   40.9921 N   0  0  0  0  0  0  0  0  0  0  0  0
  -20.5093   63.5679   41.2905 C   0  0  0  0  0  0  0  0  0  0  0  0
  -19.6169   63.1861   40.0807 C   0  0  1  0  0  0  0  0  0  0  0  0
  -18.2912   63.4890   40.4667 O   0  0  0  0  0  0  0  0  0  0  0  0
  -17.5193   64.5032   39.9723 C   0  0  0  0  0  0  0  0  0  0  0  0
  -17.9888   65.2590   39.1101 O   0  0  0  0  0  0  0  0  0  0  0  0
  -16.2066   64.7012   40.4220 N   0  0  0  0  0  0  0  0  0  0  0  0
  -15.3034   65.7288   39.9777 C   0  0  0  0  0  0  0  0  0  0  0  0
  -15.6367   67.0164   40.6169 C   0  0  0  0  0  0  0  0  0  0  0  0
  -16.4816   67.9652   40.1036 C   0  0  0  0  0  0  0  0  0  0  0  0
  -16.7498   69.1470   40.7513 C   0  0  0  0  0  0  0  0  0  0  0  0
  -16.1644   69.4325   41.9741 C   0  0  0  0  0  0  0  0  0  0  0  0
  -15.3092   68.4817   42.5020 C   0  0  0  0  0  0  0  0  0  0  0  0
  -15.0456   67.2938   41.8420 C   0  0  0  0  0  0  0  0  0  0  0  0
  -21.9409   60.2512   37.7159 C   0  0  0  0  0  0  0  0  0  0  0  0
  -21.8521   59.4542   36.4142 C   0  0  0  0  0  0  0  0  0  0  0  0
  -23.2450   60.9527   37.8545 C   0  0  0  0  0  0  0  0  0  0  0  0
  -20.3067   64.5194   36.4925 C   0  0  0  0  0  0  0  0  0  0  0  0
  -19.4171   65.5373   36.2281 C   0  0  0  0  0  0  0  0  0  0  0  0
  -18.1185   65.2616   35.8882 C   0  0  0  0  0  0  0  0  0  0  0  0
  -17.2303   66.2838   35.6223 O   0  0  0  0  0  0  0  0  0  0  0  0
  -17.6684   67.6219   35.6978 C   0  0  0  0  0  0  0  0  0  0  0  0
  1  2  1  0
  2  3  1  0
  3  4  1  0
  4  5  1  0
  5  6  1  0
  6  7  1  0
  7  8  2  0
  8  9  1  0
  9 10  1  0
 10 11  2  0
 10 12  1  0
 12 13  1  0
 14 13  1  6
 14 15  1  0
 15 16  1  0
 16 17  1  0
 17 18  1  0
 18 19  1  1
 19 20  1  0
 20 21  2  0
 20 22  1  0
 22 23  1  0
 23 24  1  0
 24 25  2  0
 25 26  1  0
 26 27  2  0
 27 28  1  0
 28 29  2  0
 12 30  1  0
 30 31  1  0
 30 32  1  0
  9 33  2  0
 33 34  1  0
 34 35  2  0
 35 36  1  0
 36 37  1  0
 35  7  1  0
 18 14  1  0
 29 24  1  0
M  CHG  1  16   1
M  END
>  <shape_align_shape_tanimoto>  (1) 
0.51124676950137438

>  <shape_align_color_tanimoto>  (1) 
0.03776313766232809

>  <metric>  (1) 
shape

>  <metric_score>  (1) 
0.511

>  <template_pid>  (1) 
4RZ1

>  <template_shape_score>  (1) 
0.511

>  <template_color_score>  (1) 
0.038

>  <template_combo_score>  (1) 
0.275

$$$$
4RZ1_color_pose
     RDKit          3D

 37 39  0  0  0  0  0  0  0  0999 V2000
  -20.8240   66.2487   44.7472 C   0  0  0  0  0  0  0  0  0  0  0  0
  -22.1422   65.9041   44.6932 O   0  0  0  0  0  0  0  0  0  0  0  0
  -22.4551   65.0792   43.6420 C   0  0  0  0  0  0  0  0  0  0  0  0
  -22.1693   65.7433   42.3340 C   0  0  0  0  0  0  0  0  0  0  0  0
  -22.5761   64.7830   41.2152 C   0  0  0  0  0  0  0  0  0  0  0  0
  -21.8700   63.6327   41.2789 O   0  0  0  0  0  0  0  0  0  0  0  0
  -20.5754   63.2526   41.1553 C   0  0  0  0  0  0  0  0  0  0  0  0
  -19.4946   64.0442   40.8685 C   0  0  0  0  0  0  0  0  0  0  0  0
  -18.1900   63.5481   40.7626 C   0  0  0  0  0  0  0  0  0  0  0  0
  -17.0666   64.3808   40.4399 C   0  0  0  0  0  0  0  0  0  0  0  0
  -16.7923   64.5292   39.2072 O   0  0  0  0  0  0  0  0  0  0  0  0
  -16.2207   65.0632   41.3494 N   0  0  0  0  0  0  0  0  0  0  0  0
  -15.1576   65.8629   40.7936 C   0  0  0  0  0  0  0  0  0  0  0  0
  -15.3946   67.2753   40.5337 C   0  0  2  0  0  0  0  0  0  0  0  0
  -15.7691   68.0610   41.8101 C   0  0  0  0  0  0  0  0  0  0  0  0
  -16.0600   69.3846   41.3154 N   0  0  0  0  0  0  0  0  0  0  0  0
  -16.3044   69.2776   39.9017 C   0  0  0  0  0  0  0  0  0  0  0  0
  -16.4543   67.7490   39.6410 C   0  0  1  0  0  0  0  0  0  0  0  0
  -16.2749   67.5223   38.2528 O   0  0  0  0  0  0  0  0  0  0  0  0
  -17.3750   67.1384   37.4914 C   0  0  0  0  0  0  0  0  0  0  0  0
  -18.4638   67.0225   38.1159 O   0  0  0  0  0  0  0  0  0  0  0  0
  -17.3354   66.8816   36.1105 N   0  0  0  0  0  0  0  0  0  0  0  0
  -18.4709   66.4799   35.3062 C   0  0  0  0  0  0  0  0  0  0  0  0
  -18.8541   65.0697   35.4651 C   0  0  0  0  0  0  0  0  0  0  0  0
  -18.2638   64.0943   34.6525 C   0  0  0  0  0  0  0  0  0  0  0  0
  -18.5940   62.7586   34.7639 C   0  0  0  0  0  0  0  0  0  0  0  0
  -19.5242   62.3421   35.6881 C   0  0  0  0  0  0  0  0  0  0  0  0
  -20.1214   63.2754   36.5003 C   0  0  0  0  0  0  0  0  0  0  0  0
  -19.7787   64.6033   36.3739 C   0  0  0  0  0  0  0  0  0  0  0  0
  -16.3624   64.9748   42.7936 C   0  0  0  0  0  0  0  0  0  0  0  0
  -17.7191   65.2056   43.3272 C   0  0  0  0  0  0  0  0  0  0  0  0
  -15.9792   63.5267   43.1621 C   0  0  0  0  0  0  0  0  0  0  0  0
  -17.9731   62.2003   40.9548 C   0  0  0  0  0  0  0  0  0  0  0  0
  -19.0317   61.3751   41.2443 C   0  0  0  0  0  0  0  0  0  0  0  0
  -20.3008   61.8881   41.3420 C   0  0  0  0  0  0  0  0  0  0  0  0
  -21.3480   61.0264   41.6354 O   0  0  0  0  0  0  0  0  0  0  0  0
  -21.2309   59.6535   41.8462 C   0  0  0  0  0  0  0  0  0  0  0  0
  1  2  1  0
  2  3  1  0
  3  4  1  0
  4  5  1  0
  5  6  1  0
  6  7  1  0
  7  8  2  0
  8  9  1  0
  9 10  1  0
 10 11  2  0
 10 12  1  0
 12 13  1  0
 14 13  1  1
 14 15  1  0
 15 16  1  0
 16 17  1  0
 17 18  1  0
 18 19  1  6
 19 20  1  0
 20 21  2  0
 20 22  1  0
 22 23  1  0
 23 24  1  0
 24 25  2  0
 25 26  1  0
 26 27  2  0
 27 28  1  0
 28 29  2  0
 12 30  1  0
 30 31  1  0
 30 32  1  0
  9 33  2  0
 33 34  1  0
 34 35  2  0
 35 36  1  0
 36 37  1  0
 35  7  1  0
 18 14  1  0
 29 24  1  0
M  CHG  1  16   1
M  END
>  <shape_align_shape_tanimoto>  (2) 
0.38889719880426948

>  <shape_align_color_tanimoto>  (2) 
0.091565230935933856

>  <metric>  (2) 
color

>  <metric_score>  (2) 
0.092

>  <template_pid>  (2) 
4RZ1

>  <template_shape_score>  (2) 
0.389

>  <template_color_score>  (2) 
0.092

>  <template_combo_score>  (2) 
0.240

$$$$
4RZ1_combo_pose
     RDKit          3D

 37 39  0  0  0  0  0  0  0  0999 V2000
  -14.9981   59.2428   37.6582 C   0  0  0  0  0  0  0  0  0  0  0  0
  -13.9584   59.9442   37.1127 O   0  0  0  0  0  0  0  0  0  0  0  0
  -14.2967   60.8037   36.1121 C   0  0  0  0  0  0  0  0  0  0  0  0
  -15.2757   61.8942   36.5243 C   0  0  0  0  0  0  0  0  0  0  0  0
  -15.5040   62.7285   35.2837 C   0  0  0  0  0  0  0  0  0  0  0  0
  -16.3558   63.7726   35.4612 O   0  0  0  0  0  0  0  0  0  0  0  0
  -17.6520   63.9420   35.7985 C   0  0  0  0  0  0  0  0  0  0  0  0
  -18.5769   62.9595   36.0695 C   0  0  0  0  0  0  0  0  0  0  0  0
  -19.8872   63.2065   36.4134 C   0  0  0  0  0  0  0  0  0  0  0  0
  -20.8766   62.1821   36.6751 C   0  0  0  0  0  0  0  0  0  0  0  0
  -21.8833   62.2033   35.8642 O   0  0  0  0  0  0  0  0  0  0  0  0
  -20.8081   61.2107   37.7100 N   0  0  0  0  0  0  0  0  0  0  0  0
  -19.7996   61.0500   38.6794 C   0  0  0  0  0  0  0  0  0  0  0  0
  -19.8080   61.7253   39.9667 C   0  0  2  0  0  0  0  0  0  0  0  0
  -20.9967   61.4381   40.8460 C   0  0  0  0  0  0  0  0  0  0  0  0
  -21.6592   62.7349   40.9921 N   0  0  0  0  0  0  0  0  0  0  0  0
  -20.5093   63.5679   41.2905 C   0  0  0  0  0  0  0  0  0  0  0  0
  -19.6169   63.1861   40.0807 C   0  0  1  0  0  0  0  0  0  0  0  0
  -18.2912   63.4890   40.4667 O   0  0  0  0  0  0  0  0  0  0  0  0
  -17.5193   64.5032   39.9723 C   0  0  0  0  0  0  0  0  0  0  0  0
  -17.9888   65.2590   39.1101 O   0  0  0  0  0  0  0  0  0  0  0  0
  -16.2066   64.7012   40.4220 N   0  0  0  0  0  0  0  0  0  0  0  0
  -15.3034   65.7288   39.9777 C   0  0  0  0  0  0  0  0  0  0  0  0
  -15.6367   67.0164   40.6169 C   0  0  0  0  0  0  0  0  0  0  0  0
  -16.4816   67.9652   40.1036 C   0  0  0  0  0  0  0  0  0  0  0  0
  -16.7498   69.1470   40.7513 C   0  0  0  0  0  0  0  0  0  0  0  0
  -16.1644   69.4325   41.9741 C   0  0  0  0  0  0  0  0  0  0  0  0
  -15.3092   68.4817   42.5020 C   0  0  0  0  0  0  0  0  0  0  0  0
  -15.0456   67.2938   41.8420 C   0  0  0  0  0  0  0  0  0  0  0  0
  -21.9409   60.2512   37.7159 C   0  0  0  0  0  0  0  0  0  0  0  0
  -21.8521   59.4542   36.4142 C   0  0  0  0  0  0  0  0  0  0  0  0
  -23.2450   60.9527   37.8545 C   0  0  0  0  0  0  0  0  0  0  0  0
  -20.3067   64.5194   36.4925 C   0  0  0  0  0  0  0  0  0  0  0  0
  -19.4171   65.5373   36.2281 C   0  0  0  0  0  0  0  0  0  0  0  0
  -18.1185   65.2616   35.8882 C   0  0  0  0  0  0  0  0  0  0  0  0
  -17.2303   66.2838   35.6223 O   0  0  0  0  0  0  0  0  0  0  0  0
  -17.6684   67.6219   35.6978 C   0  0  0  0  0  0  0  0  0  0  0  0
  1  2  1  0
  2  3  1  0
  3  4  1  0
  4  5  1  0
  5  6  1  0
  6  7  1  0
  7  8  2  0
  8  9  1  0
  9 10  1  0
 10 11  2  0
 10 12  1  0
 12 13  1  0
 14 13  1  6
 14 15  1  0
 15 16  1  0
 16 17  1  0
 17 18  1  0
 18 19  1  1
 19 20  1  0
 20 21  2  0
 20 22  1  0
 22 23  1  0
 23 24  1  0
 24 25  2  0
 25 26  1  0
 26 27  2  0
 27 28  1  0
 28 29  2  0
 12 30  1  0
 30 31  1  0
 30 32  1  0
  9 33  2  0
 33 34  1  0
 34 35  2  0
 35 36  1  0
 36 37  1  0
 35  7  1  0
 18 14  1  0
 29 24  1  0
M  CHG  1  16   1
M  END
>  <shape_align_shape_tanimoto>  (3) 
0.51124676950137438

>  <shape_align_color_tanimoto>  (3) 
0.03776313766232809

>  <metric>  (3) 
combo

>  <metric_score>  (3) 
0.275

>  <template_pid>  (3) 
4RZ1

>  <template_shape_score>  (3) 
0.511

>  <template_color_score>  (3) 
0.038

>  <template_combo_score>  (3) 
0.275

$$$$
