6QGF_shape_pose
     RDKit          3D

 50 55  0  0  0  0  0  0  0  0999 V2000
   10.7687    8.7137    0.1990 O   0  0  0  0  0  0  0  0  0  0  0  0
   11.4313    9.6070    0.7618 C   0  0  0  0  0  0  0  0  0  0  0  0
   12.7357    9.3940    0.8429 O   0  0  0  0  0  0  0  0  0  0  0  0
   13.5643   10.2283    1.3945 C   0  0  0  0  0  0  0  0  0  0  0  0
   14.9115    9.9273    1.4397 C   0  0  0  0  0  0  0  0  0  0  0  0
   15.7380   10.8496    2.0373 C   0  0  0  0  0  0  0  0  0  0  0  0
   15.2854   12.0384    2.5819 C   0  0  0  0  0  0  0  0  0  0  0  0
   16.1614   12.8789    3.1438 F   0  0  0  0  0  0  0  0  0  0  0  0
   13.9450   12.3363    2.5359 C   0  0  0  0  0  0  0  0  0  0  0  0
   13.4393   13.4701    3.0452 F   0  0  0  0  0  0  0  0  0  0  0  0
   13.0988   11.3987    1.9281 C   0  0  0  0  0  0  0  0  0  0  0  0
   11.7532   11.6496    1.8604 C   0  0  0  0  0  0  0  0  0  0  0  0
   10.8722   10.7280    1.2587 C   0  0  0  0  0  0  0  0  0  0  0  0
    9.4504   11.1013    1.3045 C   0  0  0  0  0  0  0  0  0  0  0  0
    8.7030   10.6586    2.3255 O   0  0  0  0  0  0  0  0  0  0  0  0
    8.4116    9.3791    2.5933 C   0  0  1  0  0  0  0  0  0  0  0  0
    9.1574    8.9653    3.8624 C   0  0  1  0  0  0  0  0  0  0  0  0
    9.7810   10.0703    4.4546 O   0  0  0  0  0  0  0  0  0  0  0  0
    8.2048    8.4121    4.8974 C   0  0  1  0  0  0  0  0  0  0  0  0
    8.9319    8.0707    6.1580 C   0  0  0  0  0  0  0  0  0  0  0  0
    9.6150    9.1758    6.6040 O   0  0  0  0  0  0  0  0  0  0  0  0
    7.2691    9.4563    5.0947 O   0  0  0  0  0  0  0  0  0  0  0  0
    6.3464    9.2799    4.0657 C   0  0  1  0  0  0  0  0  0  0  0  0
    5.0947   10.6113    4.1484 S   0  0  0  0  0  0  0  0  0  0  0  0
    5.8825   12.1728    3.7768 C   0  0  2  0  0  0  0  0  0  0  0  0
    6.8013   12.5214    4.7449 O   0  0  0  0  0  0  0  0  0  0  0  0
    7.4505   13.7172    4.4776 C   0  0  2  0  0  0  0  0  0  0  0  0
    7.2177   14.6289    5.6345 C   0  0  0  0  0  0  0  0  0  0  0  0
    7.7274   14.0462    6.7788 O   0  0  0  0  0  0  0  0  0  0  0  0
    7.1280   14.3047    3.1271 C   0  0  2  0  0  0  0  0  0  0  0  0
    7.7937   15.5226    3.0300 O   0  0  0  0  0  0  0  0  0  0  0  0
    5.6819   14.3651    2.8013 C   0  0  2  0  0  0  0  0  0  0  0  0
    5.0562   15.6455    2.8882 N   0  0  0  0  0  0  0  0  0  0  0  0
    5.4178   16.7690    3.5317 C   0  0  0  0  0  0  0  0  0  0  0  0
    4.4683   17.7476    3.3096 C   0  0  0  0  0  0  0  0  0  0  0  0
    4.4882   19.1069    3.8352 C   0  0  0  0  0  0  0  0  0  0  0  0
    5.5028   19.5674    4.6310 C   0  0  0  0  0  0  0  0  0  0  0  0
    5.5132   20.8529    5.1277 C   0  0  0  0  0  0  0  0  0  0  0  0
    6.5333   21.2706    5.9090 F   0  0  0  0  0  0  0  0  0  0  0  0
    4.4439   21.6572    4.7802 C   0  0  0  0  0  0  0  0  0  0  0  0
    4.4401   22.9383    5.2625 F   0  0  0  0  0  0  0  0  0  0  0  0
    3.4045   21.2148    3.9761 C   0  0  0  0  0  0  0  0  0  0  0  0
    2.4084   22.0768    3.6940 F   0  0  0  0  0  0  0  0  0  0  0  0
    3.4051   19.9223    3.4842 C   0  0  0  0  0  0  0  0  0  0  0  0
    3.5471   17.1669    2.5223 N   0  0  0  0  0  0  0  0  0  0  0  0
    3.8916   15.9168    2.2685 N   0  0  0  0  0  0  0  0  0  0  0  0
    4.8788   13.2863    3.5319 C   0  0  1  0  0  0  0  0  0  0  0  0
    3.8661   12.7793    2.7214 O   0  0  0  0  0  0  0  0  0  0  0  0
    6.9309    9.1067    2.7138 C   0  0  2  0  0  0  0  0  0  0  0  0
    6.5989    7.8883    2.1198 O   0  0  0  0  0  0  0  0  0  0  0  0
  1  2  2  0
  2  3  1  0
  3  4  1  0
  4  5  2  0
  5  6  1  0
  6  7  2  0
  7  8  1  0
  7  9  1  0
  9 10  1  0
  9 11  2  0
 11 12  1  0
 12 13  2  0
 13 14  1  0
 14 15  1  0
 16 15  1  1
 16 17  1  0
 17 18  1  1
 17 19  1  0
 19 20  1  1
 20 21  1  0
 19 22  1  0
 22 23  1  0
 23 24  1  6
 25 24  1  1
 25 26  1  0
 26 27  1  0
 27 28  1  1
 28 29  1  0
 27 30  1  0
 30 31  1  1
 30 32  1  0
 32 33  1  1
 33 34  1  0
 34 35  2  0
 35 36  1  0
 36 37  2  0
 37 38  1  0
 38 39  1  0
 38 40  2  0
 40 41  1  0
 40 42  1  0
 42 43  1  0
 42 44  2  0
 35 45  1  0
 45 46  2  0
 32 47  1  0
 47 48  1  6
 23 49  1  0
 49 50  1  1
 13  2  1  0
 49 16  1  0
 11  4  1  0
 47 25  1  0
 46 33  1  0
 44 36  1  0
M  END
>  <shape_align_shape_tanimoto>  (1) 
0.33157670183749499

>  <shape_align_color_tanimoto>  (1) 
0.040560446715614484

>  <metric>  (1) 
shape

>  <metric_score>  (1) 
0.332

>  <template_pid>  (1) 
6QGF

>  <template_shape_score>  (1) 
0.332

>  <template_color_score>  (1) 
0.041

>  <template_combo_score>  (1) 
0.186

$$$$
6QGF_color_pose
     RDKit          3D

 50 55  0  0  0  0  0  0  0  0999 V2000
    7.4035   17.2693    6.9844 O   0  0  0  0  0  0  0  0  0  0  0  0
    6.8583   17.7407    5.9404 C   0  0  0  0  0  0  0  0  0  0  0  0
    6.2466   18.9187    5.9658 O   0  0  0  0  0  0  0  0  0  0  0  0
    5.6785   19.4040    4.8675 C   0  0  0  0  0  0  0  0  0  0  0  0
    5.0439   20.6471    4.9323 C   0  0  0  0  0  0  0  0  0  0  0  0
    4.4573   21.1293    3.7629 C   0  0  0  0  0  0  0  0  0  0  0  0
    4.5024   20.4015    2.5791 C   0  0  0  0  0  0  0  0  0  0  0  0
    3.9247   20.8834    1.4388 F   0  0  0  0  0  0  0  0  0  0  0  0
    5.1247   19.1915    2.5326 C   0  0  0  0  0  0  0  0  0  0  0  0
    5.1562   18.5027    1.3746 F   0  0  0  0  0  0  0  0  0  0  0  0
    5.7055   18.7089    3.6806 C   0  0  0  0  0  0  0  0  0  0  0  0
    6.3290   17.4705    3.5851 C   0  0  0  0  0  0  0  0  0  0  0  0
    6.9088   17.0105    4.7716 C   0  0  0  0  0  0  0  0  0  0  0  0
    7.5828   15.6949    4.7005 C   0  0  0  0  0  0  0  0  0  0  0  0
    6.8378   14.6728    5.2836 O   0  0  0  0  0  0  0  0  0  0  0  0
    7.4737   13.4605    5.2102 C   0  0  1  0  0  0  0  0  0  0  0  0
    7.7897   12.8619    6.5659 C   0  0  1  0  0  0  0  0  0  0  0  0
    6.6136   12.8797    7.3089 O   0  0  0  0  0  0  0  0  0  0  0  0
    8.2425   11.4336    6.4498 C   0  0  1  0  0  0  0  0  0  0  0  0
    7.2953   10.5212    7.1914 C   0  0  0  0  0  0  0  0  0  0  0  0
    7.0503   10.9581    8.5039 O   0  0  0  0  0  0  0  0  0  0  0  0
    8.5108   11.0456    5.1552 O   0  0  0  0  0  0  0  0  0  0  0  0
    7.5799   11.2624    4.2034 C   0  0  1  0  0  0  0  0  0  0  0  0
    6.6342    9.7322    3.9579 S   0  0  0  0  0  0  0  0  0  0  0  0
    7.6587    8.4205    3.2531 C   0  0  2  0  0  0  0  0  0  0  0  0
    8.6586    8.0053    4.0957 O   0  0  0  0  0  0  0  0  0  0  0  0
    9.1696    6.7862    3.6626 C   0  0  2  0  0  0  0  0  0  0  0  0
   10.4815    6.4551    4.3378 C   0  0  0  0  0  0  0  0  0  0  0  0
   11.0056    5.2480    3.9204 O   0  0  0  0  0  0  0  0  0  0  0  0
    9.2024    6.6036    2.1881 C   0  0  2  0  0  0  0  0  0  0  0  0
   10.2781    5.8354    1.7483 O   0  0  0  0  0  0  0  0  0  0  0  0
    9.2415    7.8878    1.3904 C   0  0  2  0  0  0  0  0  0  0  0  0
   10.5442    8.5173    1.3801 N   0  0  0  0  0  0  0  0  0  0  0  0
   10.8927    9.5105    2.2070 C   0  0  0  0  0  0  0  0  0  0  0  0
   12.1927    9.8501    1.9017 C   0  0  0  0  0  0  0  0  0  0  0  0
   12.9832   10.8852    2.5451 C   0  0  0  0  0  0  0  0  0  0  0  0
   14.2751   11.0898    2.1001 C   0  0  0  0  0  0  0  0  0  0  0  0
   15.0340   12.0743    2.7082 C   0  0  0  0  0  0  0  0  0  0  0  0
   16.3121   12.3155    2.3064 F   0  0  0  0  0  0  0  0  0  0  0  0
   14.4980   12.8250    3.7335 C   0  0  0  0  0  0  0  0  0  0  0  0
   15.2768   13.7759    4.2975 F   0  0  0  0  0  0  0  0  0  0  0  0
   13.2111   12.6182    4.1738 C   0  0  0  0  0  0  0  0  0  0  0  0
   12.6895   13.3662    5.1886 F   0  0  0  0  0  0  0  0  0  0  0  0
   12.4570   11.6302    3.5598 C   0  0  0  0  0  0  0  0  0  0  0  0
   12.5588    9.0336    0.8974 N   0  0  0  0  0  0  0  0  0  0  0  0
   11.5726    8.2195    0.5686 N   0  0  0  0  0  0  0  0  0  0  0  0
    8.1565    8.7867    1.8707 C   0  0  1  0  0  0  0  0  0  0  0  0
    7.0834    8.7142    0.9743 O   0  0  0  0  0  0  0  0  0  0  0  0
    6.6821   12.4162    4.4699 C   0  0  2  0  0  0  0  0  0  0  0  0
    6.2060   13.0219    3.3077 O   0  0  0  0  0  0  0  0  0  0  0  0
  1  2  2  0
  2  3  1  0
  3  4  1  0
  4  5  2  0
  5  6  1  0
  6  7  2  0
  7  8  1  0
  7  9  1  0
  9 10  1  0
  9 11  2  0
 11 12  1  0
 12 13  2  0
 13 14  1  0
 14 15  1  0
 16 15  1  1
 16 17  1  0
 17 18  1  1
 17 19  1  0
 19 20  1  6
 20 21  1  0
 19 22  1  0
 22 23  1  0
 23 24  1  1
 25 24  1  1
 25 26  1  0
 26 27  1  0
 27 28  1  6
 28 29  1  0
 27 30  1  0
 30 31  1  1
 30 32  1  0
 32 33  1  1
 33 34  1  0
 34 35  2  0
 35 36  1  0
 36 37  2  0
 37 38  1  0
 38 39  1  0
 38 40  2  0
 40 41  1  0
 40 42  1  0
 42 43  1  0
 42 44  2  0
 35 45  1  0
 45 46  2  0
 32 47  1  0
 47 48  1  6
 23 49  1  0
 49 50  1  6
 13  2  1  0
 49 16  1  0
 11  4  1  0
 47 25  1  0
 46 33  1  0
 44 36  1  0
M  END
>  <shape_align_shape_tanimoto>  (2) 
0.31443028630633213

>  <shape_align_color_tanimoto>  (2) 
0.072227789084016086

>  <metric>  (2) 
color

>  <metric_score>  (2) 
0.072

>  <template_pid>  (2) 
6QGF

>  <template_shape_score>  (2) 
0.314

>  <template_color_score>  (2) 
0.072

>  <template_combo_score>  (2) 
0.193

$$$$
6QGF_combo_pose
     RDKit          3D

 50 55  0  0  0  0  0  0  0  0999 V2000
    7.4035   17.2693    6.9844 O   0  0  0  0  0  0  0  0  0  0  0  0
    6.8583   17.7407    5.9404 C   0  0  0  0  0  0  0  0  0  0  0  0
    6.2466   18.9187    5.9658 O   0  0  0  0  0  0  0  0  0  0  0  0
    5.6785   19.4040    4.8675 C   0  0  0  0  0  0  0  0  0  0  0  0
    5.0439   20.6471    4.9323 C   0  0  0  0  0  0  0  0  0  0  0  0
    4.4573   21.1293    3.7629 C   0  0  0  0  0  0  0  0  0  0  0  0
    4.5024   20.4015    2.5791 C   0  0  0  0  0  0  0  0  0  0  0  0
    3.9247   20.8834    1.4388 F   0  0  0  0  0  0  0  0  0  0  0  0
    5.1247   19.1915    2.5326 C   0  0  0  0  0  0  0  0  0  0  0  0
    5.1562   18.5027    1.3746 F   0  0  0  0  0  0  0  0  0  0  0  0
    5.7055   18.7089    3.6806 C   0  0  0  0  0  0  0  0  0  0  0  0
    6.3290   17.4705    3.5851 C   0  0  0  0  0  0  0  0  0  0  0  0
    6.9088   17.0105    4.7716 C   0  0  0  0  0  0  0  0  0  0  0  0
    7.5828   15.6949    4.7005 C   0  0  0  0  0  0  0  0  0  0  0  0
    6.8378   14.6728    5.2836 O   0  0  0  0  0  0  0  0  0  0  0  0
    7.4737   13.4605    5.2102 C   0  0  1  0  0  0  0  0  0  0  0  0
    7.7897   12.8619    6.5659 C   0  0  1  0  0  0  0  0  0  0  0  0
    6.6136   12.8797    7.3089 O   0  0  0  0  0  0  0  0  0  0  0  0
    8.2425   11.4336    6.4498 C   0  0  1  0  0  0  0  0  0  0  0  0
    7.2953   10.5212    7.1914 C   0  0  0  0  0  0  0  0  0  0  0  0
    7.0503   10.9581    8.5039 O   0  0  0  0  0  0  0  0  0  0  0  0
    8.5108   11.0456    5.1552 O   0  0  0  0  0  0  0  0  0  0  0  0
    7.5799   11.2624    4.2034 C   0  0  1  0  0  0  0  0  0  0  0  0
    6.6342    9.7322    3.9579 S   0  0  0  0  0  0  0  0  0  0  0  0
    7.6587    8.4205    3.2531 C   0  0  2  0  0  0  0  0  0  0  0  0
    8.6586    8.0053    4.0957 O   0  0  0  0  0  0  0  0  0  0  0  0
    9.1696    6.7862    3.6626 C   0  0  2  0  0  0  0  0  0  0  0  0
   10.4815    6.4551    4.3378 C   0  0  0  0  0  0  0  0  0  0  0  0
   11.0056    5.2480    3.9204 O   0  0  0  0  0  0  0  0  0  0  0  0
    9.2024    6.6036    2.1881 C   0  0  2  0  0  0  0  0  0  0  0  0
   10.2781    5.8354    1.7483 O   0  0  0  0  0  0  0  0  0  0  0  0
    9.2415    7.8878    1.3904 C   0  0  2  0  0  0  0  0  0  0  0  0
   10.5442    8.5173    1.3801 N   0  0  0  0  0  0  0  0  0  0  0  0
   10.8927    9.5105    2.2070 C   0  0  0  0  0  0  0  0  0  0  0  0
   12.1927    9.8501    1.9017 C   0  0  0  0  0  0  0  0  0  0  0  0
   12.9832   10.8852    2.5451 C   0  0  0  0  0  0  0  0  0  0  0  0
   14.2751   11.0898    2.1001 C   0  0  0  0  0  0  0  0  0  0  0  0
   15.0340   12.0743    2.7082 C   0  0  0  0  0  0  0  0  0  0  0  0
   16.3121   12.3155    2.3064 F   0  0  0  0  0  0  0  0  0  0  0  0
   14.4980   12.8250    3.7335 C   0  0  0  0  0  0  0  0  0  0  0  0
   15.2768   13.7759    4.2975 F   0  0  0  0  0  0  0  0  0  0  0  0
   13.2111   12.6182    4.1738 C   0  0  0  0  0  0  0  0  0  0  0  0
   12.6895   13.3662    5.1886 F   0  0  0  0  0  0  0  0  0  0  0  0
   12.4570   11.6302    3.5598 C   0  0  0  0  0  0  0  0  0  0  0  0
   12.5588    9.0336    0.8974 N   0  0  0  0  0  0  0  0  0  0  0  0
   11.5726    8.2195    0.5686 N   0  0  0  0  0  0  0  0  0  0  0  0
    8.1565    8.7867    1.8707 C   0  0  1  0  0  0  0  0  0  0  0  0
    7.0834    8.7142    0.9743 O   0  0  0  0  0  0  0  0  0  0  0  0
    6.6821   12.4162    4.4699 C   0  0  2  0  0  0  0  0  0  0  0  0
    6.2060   13.0219    3.3077 O   0  0  0  0  0  0  0  0  0  0  0  0
  1  2  2  0
  2  3  1  0
  3  4  1  0
  4  5  2  0
  5  6  1  0
  6  7  2  0
  7  8  1  0
  7  9  1  0
  9 10  1  0
  9 11  2  0
 11 12  1  0
 12 13  2  0
 13 14  1  0
 14 15  1  0
 16 15  1  1
 16 17  1  0
 17 18  1  1
 17 19  1  0
 19 20  1  6
 20 21  1  0
 19 22  1  0
 22 23  1  0
 23 24  1  1
 25 24  1  1
 25 26  1  0
 26 27  1  0
 27 28  1  6
 28 29  1  0
 27 30  1  0
 30 31  1  1
 30 32  1  0
 32 33  1  1
 33 34  1  0
 34 35  2  0
 35 36  1  0
 36 37  2  0
 37 38  1  0
 38 39  1  0
 38 40  2  0
 40 41  1  0
 40 42  1  0
 42 43  1  0
 42 44  2  0
 35 45  1  0
 45 46  2  0
 32 47  1  0
 47 48  1  6
 23 49  1  0
 49 50  1  6
 13  2  1  0
 49 16  1  0
 11  4  1  0
 47 25  1  0
 46 33  1  0
 44 36  1  0
M  END
>  <shape_align_shape_tanimoto>  (3) 
0.31443028630633213

>  <shape_align_color_tanimoto>  (3) 
0.072227789084016086

>  <metric>  (3) 
combo

>  <metric_score>  (3) 
0.193

>  <template_pid>  (3) 
6QGF

>  <template_shape_score>  (3) 
0.314

>  <template_color_score>  (3) 
0.072

>  <template_combo_score>  (3) 
0.193

$$$$
