4JOG_shape_pose
     RDKit          3D

 61 61  0  0  0  0  0  0  0  0999 V2000
    5.7022   22.8565   22.3877 C   0  0  0  0  0  0  0  0  0  0  0  0
    5.8788   21.3485   22.5331 C   0  0  0  0  0  0  0  0  0  0  0  0
    7.3003   21.0281   22.0875 C   0  0  2  0  0  0  0  0  0  0  0  0
    7.4913   21.4577   20.6413 C   0  0  0  0  0  0  0  0  0  0  0  0
    7.6324   19.5634   22.1790 C   0  0  2  0  0  0  0  0  0  0  0  0
    9.0044   19.3477   21.7608 N   0  0  0  0  0  0  0  0  0  0  0  0
    9.8357   18.3259   22.3223 C   0  0  0  0  0  0  0  0  0  0  0  0
    9.3386   17.5692   23.1929 O   0  0  0  0  0  0  0  0  0  0  0  0
   11.2537   18.1878   21.8510 C   0  0  1  0  0  0  0  0  0  0  0  0
   11.8331   19.4162   21.3915 N   0  0  0  0  0  0  0  0  0  0  0  0
   11.5933   20.6893   21.9743 C   0  0  0  0  0  0  0  0  0  0  0  0
   10.8233   20.8188   23.0055 O   0  0  0  0  0  0  0  0  0  0  0  0
   12.1653   21.9626   21.4945 C   0  0  2  0  0  0  0  0  0  0  0  0
   11.0334   22.9036   21.0443 C   0  0  0  0  0  0  0  0  0  0  0  0
   10.2132   23.1247   22.1472 O   0  0  0  0  0  0  0  0  0  0  0  0
   12.9958   21.7595   20.3324 N   0  0  0  0  0  0  0  0  0  0  0  0
   14.2125   22.5363   20.3040 C   0  0  0  0  0  0  0  0  0  0  0  0
   14.5293   23.3290   21.2160 O   0  0  0  0  0  0  0  0  0  0  0  0
   15.1755   22.4295   19.1529 C   0  0  1  0  0  0  0  0  0  0  0  0
   16.2017   23.4459   19.3594 N   0  0  0  0  0  0  0  0  0  0  0  0
   16.2942   24.4593   18.3434 C   0  0  0  0  0  0  0  0  0  0  0  0
   15.5455   24.4788   17.3359 O   0  0  0  0  0  0  0  0  0  0  0  0
   17.3072   25.5660   18.4305 C   0  0  2  0  0  0  0  0  0  0  0  0
   16.8069   26.4628   19.5525 C   0  0  0  0  0  0  0  0  0  0  0  0
   16.0289   27.5629   18.9262 C   0  0  0  0  0  0  0  0  0  0  0  0
   16.2700   27.4270   17.4565 C   0  0  0  0  0  0  0  0  0  0  0  0
   17.2537   26.3639   17.2396 N   0  0  0  0  0  0  0  0  0  0  0  0
   17.9530   26.2831   16.0066 C   0  0  0  0  0  0  0  0  0  0  0  0
   17.6431   27.2160   15.1779 O   0  0  0  0  0  0  0  0  0  0  0  0
   18.9369   25.3277   15.5582 C   0  0  1  0  0  0  0  0  0  0  0  0
   19.3218   24.2697   16.4517 N   0  0  0  0  0  0  0  0  0  0  0  0
   20.6739   23.9014   16.7171 C   0  0  0  0  0  0  0  0  0  0  0  0
   21.6588   24.4906   16.1600 O   0  0  0  0  0  0  0  0  0  0  0  0
   21.0441   22.8060   17.6583 C   0  0  2  0  0  0  0  0  0  0  0  0
   20.8909   23.2417   19.0954 C   0  0  0  0  0  0  0  0  0  0  0  0
   21.2694   22.0650   19.9923 C   0  0  0  0  0  0  0  0  0  0  0  0
   21.1901   22.4938   21.4441 C   0  0  0  0  0  0  0  0  0  0  0  0
   19.8927   22.9471   21.8585 N   0  0  0  0  0  0  0  0  0  0  0  0
   19.8283   23.4784   23.2065 C   0  0  0  0  0  0  0  0  0  0  0  0
   18.6078   23.9614   23.7438 N   0  0  0  0  0  0  0  0  0  0  0  0
   20.8840   23.5172   23.9442 N   0  0  0  0  0  0  0  0  0  0  0  0
   22.5039   22.6147   17.5047 N   0  0  0  0  0  0  0  0  0  0  0  0
   22.9622   21.3297   17.1379 C   0  0  0  0  0  0  0  0  0  0  0  0
   22.1273   20.3742   16.9484 O   0  0  0  0  0  0  0  0  0  0  0  0
   24.3878   20.9686   16.9442 C   0  0  1  0  0  0  0  0  0  0  0  0
   25.3046   22.0517   17.1522 N   0  0  0  0  0  0  0  0  0  0  0  0
   24.6638   19.8108   17.9033 C   0  0  0  0  0  0  0  0  0  0  0  0
   23.7057   18.8186   17.6016 O   0  0  0  0  0  0  0  0  0  0  0  0
   18.6219   24.7761   14.1676 C   0  0  0  0  0  0  0  0  0  0  0  0
   19.6850   23.7930   13.7581 C   0  0  0  0  0  0  0  0  0  0  0  0
   17.2855   24.1391   14.0546 C   0  0  0  0  0  0  0  0  0  0  0  0
   15.7574   21.0535   19.0992 C   0  0  1  0  0  0  0  0  0  0  0  0
   16.3766   20.6611   20.4419 C   0  0  0  0  0  0  0  0  0  0  0  0
   14.7369   20.1380   18.8845 O   0  0  0  0  0  0  0  0  0  0  0  0
   12.0945   17.2365   22.5763 C   0  0  1  0  0  0  0  0  0  0  0  0
   13.5013   17.2166   21.9799 C   0  0  0  0  0  0  0  0  0  0  0  0
   12.1636   17.3442   24.0626 C   0  0  0  0  0  0  0  0  0  0  0  0
   12.6902   18.6527   24.5634 C   0  0  0  0  0  0  0  0  0  0  0  0
    6.6973   18.7842   21.2685 C   0  0  0  0  0  0  0  0  0  0  0  0
    6.0504   19.3643   20.3616 O   0  0  0  0  0  0  0  0  0  0  0  0
    6.6194   17.4172   21.5170 O   0  0  0  0  0  0  0  0  0  0  0  0
  1  2  1  0
  2  3  1  0
  3  4  1  6
  3  5  1  0
  5  6  1  6
  6  7  1  0
  7  8  2  0
  7  9  1  0
  9 10  1  1
 10 11  1  0
 11 12  2  0
 11 13  1  0
 13 14  1  6
 14 15  1  0
 13 16  1  0
 16 17  1  0
 17 18  2  0
 17 19  1  0
 19 20  1  1
 20 21  1  0
 21 22  2  0
 23 21  1  6
 23 24  1  0
 24 25  1  0
 25 26  1  0
 26 27  1  0
 27 28  1  0
 28 29  2  0
 28 30  1  0
 30 31  1  1
 31 32  1  0
 32 33  2  0
 32 34  1  0
 34 35  1  1
 35 36  1  0
 36 37  1  0
 37 38  1  0
 38 39  1  0
 39 40  1  0
 39 41  2  0
 34 42  1  0
 42 43  1  0
 43 44  2  0
 43 45  1  0
 45 46  1  1
 45 47  1  0
 47 48  1  0
 30 49  1  0
 49 50  1  0
 49 51  1  0
 19 52  1  0
 52 53  1  1
 52 54  1  0
  9 55  1  0
 55 56  1  6
 55 57  1  0
 57 58  1  0
  5 59  1  0
 59 60  2  0
 59 61  1  0
 27 23  1  0
M  CHG  3  41   1  46   1  61  -1
M  END
>  <shape_align_shape_tanimoto>  (1) 
0.45078887764838549

>  <shape_align_color_tanimoto>  (1) 
0.044249031058022664

>  <metric>  (1) 
shape

>  <metric_score>  (1) 
0.451

>  <template_pid>  (1) 
4JOG

>  <template_shape_score>  (1) 
0.451

>  <template_color_score>  (1) 
0.044

>  <template_combo_score>  (1) 
0.248

$$$$
4JOG_color_pose
     RDKit          3D

 61 61  0  0  0  0  0  0  0  0999 V2000
   14.8466   27.8060   15.1549 C   0  0  0  0  0  0  0  0  0  0  0  0
   15.6015   27.3511   13.9068 C   0  0  0  0  0  0  0  0  0  0  0  0
   17.0789   27.3126   14.2695 C   0  0  2  0  0  0  0  0  0  0  0  0
   17.5793   28.6671   14.6982 C   0  0  0  0  0  0  0  0  0  0  0  0
   17.9456   26.6645   13.1970 C   0  0  2  0  0  0  0  0  0  0  0  0
   19.3285   26.6966   13.6752 N   0  0  0  0  0  0  0  0  0  0  0  0
   20.0173   25.4948   13.8861 C   0  0  0  0  0  0  0  0  0  0  0  0
   19.3309   24.4094   13.6316 O   0  0  0  0  0  0  0  0  0  0  0  0
   21.3887   25.2743   14.3505 C   0  0  1  0  0  0  0  0  0  0  0  0
   21.5891   23.8083   14.5235 N   0  0  0  0  0  0  0  0  0  0  0  0
   21.7740   23.2189   15.8063 C   0  0  0  0  0  0  0  0  0  0  0  0
   21.7713   23.9728   16.8454 O   0  0  0  0  0  0  0  0  0  0  0  0
   21.9750   21.7638   16.0494 C   0  0  2  0  0  0  0  0  0  0  0  0
   20.8106   20.9340   15.5368 C   0  0  0  0  0  0  0  0  0  0  0  0
   20.7025   21.1369   14.1547 O   0  0  0  0  0  0  0  0  0  0  0  0
   22.1552   21.5969   17.4932 N   0  0  0  0  0  0  0  0  0  0  0  0
   23.3111   20.9331   17.9920 C   0  0  0  0  0  0  0  0  0  0  0  0
   24.1653   20.5007   17.1342 O   0  0  0  0  0  0  0  0  0  0  0  0
   23.6051   20.6994   19.4339 C   0  0  1  0  0  0  0  0  0  0  0  0
   22.5646   21.2952   20.2671 N   0  0  0  0  0  0  0  0  0  0  0  0
   22.9412   22.1142   21.3543 C   0  0  0  0  0  0  0  0  0  0  0  0
   24.2650   22.2325   21.4541 O   0  0  0  0  0  0  0  0  0  0  0  0
   22.1996   22.8283   22.3452 C   0  0  2  0  0  0  0  0  0  0  0  0
   22.8850   22.7223   23.7634 C   0  0  0  0  0  0  0  0  0  0  0  0
   22.0499   23.7588   24.5036 C   0  0  0  0  0  0  0  0  0  0  0  0
   20.7477   23.7922   23.7808 C   0  0  0  0  0  0  0  0  0  0  0  0
   20.8579   22.6659   22.7494 N   0  0  0  0  0  0  0  0  0  0  0  0
   19.7361   21.8460   22.5311 C   0  0  0  0  0  0  0  0  0  0  0  0
   19.6736   20.9208   21.6252 O   0  0  0  0  0  0  0  0  0  0  0  0
   18.4540   21.9362   23.3238 C   0  0  1  0  0  0  0  0  0  0  0  0
   17.4489   21.2917   22.4174 N   0  0  0  0  0  0  0  0  0  0  0  0
   16.2317   22.0183   22.2628 C   0  0  0  0  0  0  0  0  0  0  0  0
   16.0400   23.1197   22.8596 O   0  0  0  0  0  0  0  0  0  0  0  0
   15.1627   21.4608   21.3747 C   0  0  2  0  0  0  0  0  0  0  0  0
   15.6675   21.0069   20.0482 C   0  0  0  0  0  0  0  0  0  0  0  0
   16.3683   21.9908   19.1617 C   0  0  0  0  0  0  0  0  0  0  0  0
   15.5628   23.1970   18.7343 C   0  0  0  0  0  0  0  0  0  0  0  0
   14.3401   22.9117   18.0226 N   0  0  0  0  0  0  0  0  0  0  0  0
   14.2158   22.3499   16.7298 C   0  0  0  0  0  0  0  0  0  0  0  0
   12.8754   22.1449   16.2157 N   0  0  0  0  0  0  0  0  0  0  0  0
   15.2357   22.0192   16.0062 N   0  0  0  0  0  0  0  0  0  0  0  0
   13.9535   22.2090   21.3021 N   0  0  0  0  0  0  0  0  0  0  0  0
   12.7099   21.5519   21.7041 C   0  0  0  0  0  0  0  0  0  0  0  0
   12.6881   20.3525   22.1018 O   0  0  0  0  0  0  0  0  0  0  0  0
   11.3979   22.2746   21.6627 C   0  0  1  0  0  0  0  0  0  0  0  0
   11.5398   23.6752   21.2723 N   0  0  0  0  0  0  0  0  0  0  0  0
   10.4235   21.6532   20.6601 C   0  0  0  0  0  0  0  0  0  0  0  0
   10.2182   20.2969   20.9515 O   0  0  0  0  0  0  0  0  0  0  0  0
   18.4508   20.9809   24.5291 C   0  0  0  0  0  0  0  0  0  0  0  0
   19.5454   21.1959   25.5206 C   0  0  0  0  0  0  0  0  0  0  0  0
   18.2839   19.5290   24.0956 C   0  0  0  0  0  0  0  0  0  0  0  0
   23.6575   19.1759   19.6296 C   0  0  1  0  0  0  0  0  0  0  0  0
   24.8938   18.6809   18.8675 C   0  0  0  0  0  0  0  0  0  0  0  0
   23.9360   18.9249   20.9926 O   0  0  0  0  0  0  0  0  0  0  0  0
   22.5279   25.9046   13.6370 C   0  0  1  0  0  0  0  0  0  0  0  0
   22.6656   25.5506   12.1658 C   0  0  0  0  0  0  0  0  0  0  0  0
   22.8031   27.3547   13.9579 C   0  0  0  0  0  0  0  0  0  0  0  0
   23.0905   27.3920   15.4813 C   0  0  0  0  0  0  0  0  0  0  0  0
   17.7664   27.4247   11.9300 C   0  0  0  0  0  0  0  0  0  0  0  0
   18.6343   28.1818   11.4175 O   0  0  0  0  0  0  0  0  0  0  0  0
   16.5440   27.2845   11.2632 O   0  0  0  0  0  0  0  0  0  0  0  0
  1  2  1  0
  2  3  1  0
  3  4  1  6
  3  5  1  0
  5  6  1  1
  6  7  1  0
  7  8  2  0
  7  9  1  0
  9 10  1  6
 10 11  1  0
 11 12  2  0
 11 13  1  0
 13 14  1  1
 14 15  1  0
 13 16  1  0
 16 17  1  0
 17 18  2  0
 17 19  1  0
 19 20  1  1
 20 21  1  0
 21 22  2  0
 23 21  1  6
 23 24  1  0
 24 25  1  0
 25 26  1  0
 26 27  1  0
 27 28  1  0
 28 29  2  0
 28 30  1  0
 30 31  1  6
 31 32  1  0
 32 33  2  0
 32 34  1  0
 34 35  1  6
 35 36  1  0
 36 37  1  0
 37 38  1  0
 38 39  1  0
 39 40  1  0
 39 41  2  0
 34 42  1  0
 42 43  1  0
 43 44  2  0
 43 45  1  0
 45 46  1  6
 45 47  1  0
 47 48  1  0
 30 49  1  0
 49 50  1  0
 49 51  1  0
 19 52  1  0
 52 53  1  6
 52 54  1  0
  9 55  1  0
 55 56  1  6
 55 57  1  0
 57 58  1  0
  5 59  1  0
 59 60  2  0
 59 61  1  0
 27 23  1  0
M  CHG  3  41   1  46   1  61  -1
M  END
>  <shape_align_shape_tanimoto>  (2) 
0.28875156479054453

>  <shape_align_color_tanimoto>  (2) 
0.059495492311186206

>  <metric>  (2) 
color

>  <metric_score>  (2) 
0.059

>  <template_pid>  (2) 
4JOG

>  <template_shape_score>  (2) 
0.289

>  <template_color_score>  (2) 
0.059

>  <template_combo_score>  (2) 
0.174

$$$$
4JOG_combo_pose
     RDKit          3D

 61 61  0  0  0  0  0  0  0  0999 V2000
    5.7022   22.8565   22.3877 C   0  0  0  0  0  0  0  0  0  0  0  0
    5.8788   21.3485   22.5331 C   0  0  0  0  0  0  0  0  0  0  0  0
    7.3003   21.0281   22.0875 C   0  0  2  0  0  0  0  0  0  0  0  0
    7.4913   21.4577   20.6413 C   0  0  0  0  0  0  0  0  0  0  0  0
    7.6324   19.5634   22.1790 C   0  0  2  0  0  0  0  0  0  0  0  0
    9.0044   19.3477   21.7608 N   0  0  0  0  0  0  0  0  0  0  0  0
    9.8357   18.3259   22.3223 C   0  0  0  0  0  0  0  0  0  0  0  0
    9.3386   17.5692   23.1929 O   0  0  0  0  0  0  0  0  0  0  0  0
   11.2537   18.1878   21.8510 C   0  0  1  0  0  0  0  0  0  0  0  0
   11.8331   19.4162   21.3915 N   0  0  0  0  0  0  0  0  0  0  0  0
   11.5933   20.6893   21.9743 C   0  0  0  0  0  0  0  0  0  0  0  0
   10.8233   20.8188   23.0055 O   0  0  0  0  0  0  0  0  0  0  0  0
   12.1653   21.9626   21.4945 C   0  0  2  0  0  0  0  0  0  0  0  0
   11.0334   22.9036   21.0443 C   0  0  0  0  0  0  0  0  0  0  0  0
   10.2132   23.1247   22.1472 O   0  0  0  0  0  0  0  0  0  0  0  0
   12.9958   21.7595   20.3324 N   0  0  0  0  0  0  0  0  0  0  0  0
   14.2125   22.5363   20.3040 C   0  0  0  0  0  0  0  0  0  0  0  0
   14.5293   23.3290   21.2160 O   0  0  0  0  0  0  0  0  0  0  0  0
   15.1755   22.4295   19.1529 C   0  0  1  0  0  0  0  0  0  0  0  0
   16.2017   23.4459   19.3594 N   0  0  0  0  0  0  0  0  0  0  0  0
   16.2942   24.4593   18.3434 C   0  0  0  0  0  0  0  0  0  0  0  0
   15.5455   24.4788   17.3359 O   0  0  0  0  0  0  0  0  0  0  0  0
   17.3072   25.5660   18.4305 C   0  0  2  0  0  0  0  0  0  0  0  0
   16.8069   26.4628   19.5525 C   0  0  0  0  0  0  0  0  0  0  0  0
   16.0289   27.5629   18.9262 C   0  0  0  0  0  0  0  0  0  0  0  0
   16.2700   27.4270   17.4565 C   0  0  0  0  0  0  0  0  0  0  0  0
   17.2537   26.3639   17.2396 N   0  0  0  0  0  0  0  0  0  0  0  0
   17.9530   26.2831   16.0066 C   0  0  0  0  0  0  0  0  0  0  0  0
   17.6431   27.2160   15.1779 O   0  0  0  0  0  0  0  0  0  0  0  0
   18.9369   25.3277   15.5582 C   0  0  1  0  0  0  0  0  0  0  0  0
   19.3218   24.2697   16.4517 N   0  0  0  0  0  0  0  0  0  0  0  0
   20.6739   23.9014   16.7171 C   0  0  0  0  0  0  0  0  0  0  0  0
   21.6588   24.4906   16.1600 O   0  0  0  0  0  0  0  0  0  0  0  0
   21.0441   22.8060   17.6583 C   0  0  2  0  0  0  0  0  0  0  0  0
   20.8909   23.2417   19.0954 C   0  0  0  0  0  0  0  0  0  0  0  0
   21.2694   22.0650   19.9923 C   0  0  0  0  0  0  0  0  0  0  0  0
   21.1901   22.4938   21.4441 C   0  0  0  0  0  0  0  0  0  0  0  0
   19.8927   22.9471   21.8585 N   0  0  0  0  0  0  0  0  0  0  0  0
   19.8283   23.4784   23.2065 C   0  0  0  0  0  0  0  0  0  0  0  0
   18.6078   23.9614   23.7438 N   0  0  0  0  0  0  0  0  0  0  0  0
   20.8840   23.5172   23.9442 N   0  0  0  0  0  0  0  0  0  0  0  0
   22.5039   22.6147   17.5047 N   0  0  0  0  0  0  0  0  0  0  0  0
   22.9622   21.3297   17.1379 C   0  0  0  0  0  0  0  0  0  0  0  0
   22.1273   20.3742   16.9484 O   0  0  0  0  0  0  0  0  0  0  0  0
   24.3878   20.9686   16.9442 C   0  0  1  0  0  0  0  0  0  0  0  0
   25.3046   22.0517   17.1522 N   0  0  0  0  0  0  0  0  0  0  0  0
   24.6638   19.8108   17.9033 C   0  0  0  0  0  0  0  0  0  0  0  0
   23.7057   18.8186   17.6016 O   0  0  0  0  0  0  0  0  0  0  0  0
   18.6219   24.7761   14.1676 C   0  0  0  0  0  0  0  0  0  0  0  0
   19.6850   23.7930   13.7581 C   0  0  0  0  0  0  0  0  0  0  0  0
   17.2855   24.1391   14.0546 C   0  0  0  0  0  0  0  0  0  0  0  0
   15.7574   21.0535   19.0992 C   0  0  1  0  0  0  0  0  0  0  0  0
   16.3766   20.6611   20.4419 C   0  0  0  0  0  0  0  0  0  0  0  0
   14.7369   20.1380   18.8845 O   0  0  0  0  0  0  0  0  0  0  0  0
   12.0945   17.2365   22.5763 C   0  0  1  0  0  0  0  0  0  0  0  0
   13.5013   17.2166   21.9799 C   0  0  0  0  0  0  0  0  0  0  0  0
   12.1636   17.3442   24.0626 C   0  0  0  0  0  0  0  0  0  0  0  0
   12.6902   18.6527   24.5634 C   0  0  0  0  0  0  0  0  0  0  0  0
    6.6973   18.7842   21.2685 C   0  0  0  0  0  0  0  0  0  0  0  0
    6.0504   19.3643   20.3616 O   0  0  0  0  0  0  0  0  0  0  0  0
    6.6194   17.4172   21.5170 O   0  0  0  0  0  0  0  0  0  0  0  0
  1  2  1  0
  2  3  1  0
  3  4  1  6
  3  5  1  0
  5  6  1  6
  6  7  1  0
  7  8  2  0
  7  9  1  0
  9 10  1  1
 10 11  1  0
 11 12  2  0
 11 13  1  0
 13 14  1  6
 14 15  1  0
 13 16  1  0
 16 17  1  0
 17 18  2  0
 17 19  1  0
 19 20  1  1
 20 21  1  0
 21 22  2  0
 23 21  1  6
 23 24  1  0
 24 25  1  0
 25 26  1  0
 26 27  1  0
 27 28  1  0
 28 29  2  0
 28 30  1  0
 30 31  1  1
 31 32  1  0
 32 33  2  0
 32 34  1  0
 34 35  1  1
 35 36  1  0
 36 37  1  0
 37 38  1  0
 38 39  1  0
 39 40  1  0
 39 41  2  0
 34 42  1  0
 42 43  1  0
 43 44  2  0
 43 45  1  0
 45 46  1  1
 45 47  1  0
 47 48  1  0
 30 49  1  0
 49 50  1  0
 49 51  1  0
 19 52  1  0
 52 53  1  1
 52 54  1  0
  9 55  1  0
 55 56  1  6
 55 57  1  0
 57 58  1  0
  5 59  1  0
 59 60  2  0
 59 61  1  0
 27 23  1  0
M  CHG  3  41   1  46   1  61  -1
M  END
>  <shape_align_shape_tanimoto>  (3) 
0.45078887764838549

>  <shape_align_color_tanimoto>  (3) 
0.044249031058022664

>  <metric>  (3) 
combo

>  <metric_score>  (3) 
0.248

>  <template_pid>  (3) 
4JOG

>  <template_shape_score>  (3) 
0.451

>  <template_color_score>  (3) 
0.044

>  <template_combo_score>  (3) 
0.248

$$$$
