2FME_shape_pose
     RDKit          3D

 24 26  0  0  0  0  0  0  0  0999 V2000
    8.2882   22.9083   10.7463 C   0  0  0  0  0  0  0  0  0  0  0  0
    7.6967   21.5468   10.6417 C   0  0  0  0  0  0  0  0  0  0  0  0
    6.7296   21.2879    9.6842 C   0  0  0  0  0  0  0  0  0  0  0  0
    6.1542   20.0408    9.5512 C   0  0  0  0  0  0  0  0  0  0  0  0
    6.5785   19.0547   10.4108 C   0  0  0  0  0  0  0  0  0  0  0  0
    7.5473   19.2688   11.3883 C   0  0  0  0  0  0  0  0  0  0  0  0
    8.1033   20.5197   11.4983 C   0  0  0  0  0  0  0  0  0  0  0  0
    9.1260   20.7698   12.5203 C   0  0  0  0  0  0  0  0  0  0  0  0
    7.9113   18.1217   12.2554 C   0  0  0  0  0  0  0  0  0  0  0  0
    8.0748   16.8926   11.4917 N   0  0  0  0  0  0  0  0  0  0  0  0
    9.0709   15.9995   11.9378 C   0  0  0  0  0  0  0  0  0  0  0  0
    9.7262   16.3652   12.9674 O   0  0  0  0  0  0  0  0  0  0  0  0
    9.4270   14.7567   11.3845 N   0  0  0  0  0  0  0  0  0  0  0  0
   10.5101   14.0379   12.0685 C   0  0  0  0  0  0  0  0  0  0  0  0
    8.8518   14.1246   10.2389 C   0  0  0  0  0  0  0  0  0  0  0  0
    7.2117   16.6999   10.3638 C   0  0  0  0  0  0  0  0  0  0  0  0
    6.0361   17.6543   10.3654 C   0  0  2  0  0  0  0  0  0  0  0  0
    5.1839   17.4853    9.1806 C   0  0  0  0  0  0  0  0  0  0  0  0
    3.8186   17.7518    9.2900 C   0  0  0  0  0  0  0  0  0  0  0  0
    2.9734   17.6093    8.2073 C   0  0  0  0  0  0  0  0  0  0  0  0
    3.4410   17.2004    6.9811 C   0  0  0  0  0  0  0  0  0  0  0  0
    4.7979   16.9299    6.8511 C   0  0  0  0  0  0  0  0  0  0  0  0
    5.2607   16.5159    5.6027 O   0  0  0  0  0  0  0  0  0  0  0  0
    5.6284   17.0773    7.9425 C   0  0  0  0  0  0  0  0  0  0  0  0
  1  2  1  0
  2  3  2  0
  3  4  1  0
  4  5  2  0
  5  6  1  0
  6  7  2  0
  7  8  1  0
  6  9  1  0
  9 10  1  0
 10 11  1  0
 11 12  2  0
 11 13  1  0
 13 14  1  0
 13 15  1  0
 10 16  1  0
 16 17  1  0
 17 18  1  6
 18 19  2  0
 19 20  1  0
 20 21  2  0
 21 22  1  0
 22 23  1  0
 22 24  2  0
  7  2  1  0
 24 18  1  0
 17  5  1  0
M  END
>  <shape_align_shape_tanimoto>  (1) 
0.66825115354937681

>  <shape_align_color_tanimoto>  (1) 
0.03587021288103983

>  <metric>  (1) 
shape

>  <metric_score>  (1) 
0.668

>  <template_pid>  (1) 
2FME

>  <template_shape_score>  (1) 
0.668

>  <template_color_score>  (1) 
0.036

>  <template_combo_score>  (1) 
0.352

$$$$
2FME_color_pose
     RDKit          3D

 24 26  0  0  0  0  0  0  0  0999 V2000
    7.4863   22.9435   12.6333 C   0  0  0  0  0  0  0  0  0  0  0  0
    7.5898   21.7101   11.8100 C   0  0  0  0  0  0  0  0  0  0  0  0
    8.5925   20.8206   12.1379 C   0  0  0  0  0  0  0  0  0  0  0  0
    8.6927   19.6741   11.3767 C   0  0  0  0  0  0  0  0  0  0  0  0
    7.8203   19.4155   10.3163 C   0  0  0  0  0  0  0  0  0  0  0  0
    6.8237   20.3016    9.9919 C   0  0  0  0  0  0  0  0  0  0  0  0
    6.7203   21.4497   10.7513 C   0  0  0  0  0  0  0  0  0  0  0  0
    5.6816   22.4915   10.5019 C   0  0  0  0  0  0  0  0  0  0  0  0
    5.8594   20.1131    8.8899 C   0  0  0  0  0  0  0  0  0  0  0  0
    5.8693   18.6761    8.5192 N   0  0  0  0  0  0  0  0  0  0  0  0
    4.6151   18.0888    8.3610 C   0  0  0  0  0  0  0  0  0  0  0  0
    3.6186   18.9020    8.5872 O   0  0  0  0  0  0  0  0  0  0  0  0
    4.2227   16.8004    8.0071 N   0  0  0  0  0  0  0  0  0  0  0  0
    2.7523   16.5770    7.9624 C   0  0  0  0  0  0  0  0  0  0  0  0
    5.0264   15.6629    7.6718 C   0  0  0  0  0  0  0  0  0  0  0  0
    7.1621   18.0948    8.3645 C   0  0  0  0  0  0  0  0  0  0  0  0
    8.0474   18.1414    9.5885 C   0  0  2  0  0  0  0  0  0  0  0  0
    7.9421   16.9690   10.4619 C   0  0  0  0  0  0  0  0  0  0  0  0
    6.7886   16.3957   10.9069 C   0  0  0  0  0  0  0  0  0  0  0  0
    6.7608   15.2879   11.7284 C   0  0  0  0  0  0  0  0  0  0  0  0
    7.9387   14.6950   12.1472 C   0  0  0  0  0  0  0  0  0  0  0  0
    9.1226   15.2537   11.7126 C   0  0  0  0  0  0  0  0  0  0  0  0
   10.2995   14.6401   12.1469 O   0  0  0  0  0  0  0  0  0  0  0  0
    9.1330   16.3615   10.8914 C   0  0  0  0  0  0  0  0  0  0  0  0
  1  2  1  0
  2  3  2  0
  3  4  1  0
  4  5  2  0
  5  6  1  0
  6  7  2  0
  7  8  1  0
  6  9  1  0
  9 10  1  0
 10 11  1  0
 11 12  2  0
 11 13  1  0
 13 14  1  0
 13 15  1  0
 10 16  1  0
 16 17  1  0
 17 18  1  1
 18 19  2  0
 19 20  1  0
 20 21  2  0
 21 22  1  0
 22 23  1  0
 22 24  2  0
  7  2  1  0
 24 18  1  0
 17  5  1  0
M  END
>  <shape_align_shape_tanimoto>  (2) 
0.63832795206025306

>  <shape_align_color_tanimoto>  (2) 
0.1449370317981758

>  <metric>  (2) 
color

>  <metric_score>  (2) 
0.145

>  <template_pid>  (2) 
2FME

>  <template_shape_score>  (2) 
0.638

>  <template_color_score>  (2) 
0.145

>  <template_combo_score>  (2) 
0.392

$$$$
2FME_combo_pose
     RDKit          3D

 24 26  0  0  0  0  0  0  0  0999 V2000
    7.4863   22.9435   12.6333 C   0  0  0  0  0  0  0  0  0  0  0  0
    7.5898   21.7101   11.8100 C   0  0  0  0  0  0  0  0  0  0  0  0
    8.5925   20.8206   12.1379 C   0  0  0  0  0  0  0  0  0  0  0  0
    8.6927   19.6741   11.3767 C   0  0  0  0  0  0  0  0  0  0  0  0
    7.8203   19.4155   10.3163 C   0  0  0  0  0  0  0  0  0  0  0  0
    6.8237   20.3016    9.9919 C   0  0  0  0  0  0  0  0  0  0  0  0
    6.7203   21.4497   10.7513 C   0  0  0  0  0  0  0  0  0  0  0  0
    5.6816   22.4915   10.5019 C   0  0  0  0  0  0  0  0  0  0  0  0
    5.8594   20.1131    8.8899 C   0  0  0  0  0  0  0  0  0  0  0  0
    5.8693   18.6761    8.5192 N   0  0  0  0  0  0  0  0  0  0  0  0
    4.6151   18.0888    8.3610 C   0  0  0  0  0  0  0  0  0  0  0  0
    3.6186   18.9020    8.5872 O   0  0  0  0  0  0  0  0  0  0  0  0
    4.2227   16.8004    8.0071 N   0  0  0  0  0  0  0  0  0  0  0  0
    2.7523   16.5770    7.9624 C   0  0  0  0  0  0  0  0  0  0  0  0
    5.0264   15.6629    7.6718 C   0  0  0  0  0  0  0  0  0  0  0  0
    7.1621   18.0948    8.3645 C   0  0  0  0  0  0  0  0  0  0  0  0
    8.0474   18.1414    9.5885 C   0  0  2  0  0  0  0  0  0  0  0  0
    7.9421   16.9690   10.4619 C   0  0  0  0  0  0  0  0  0  0  0  0
    6.7886   16.3957   10.9069 C   0  0  0  0  0  0  0  0  0  0  0  0
    6.7608   15.2879   11.7284 C   0  0  0  0  0  0  0  0  0  0  0  0
    7.9387   14.6950   12.1472 C   0  0  0  0  0  0  0  0  0  0  0  0
    9.1226   15.2537   11.7126 C   0  0  0  0  0  0  0  0  0  0  0  0
   10.2995   14.6401   12.1469 O   0  0  0  0  0  0  0  0  0  0  0  0
    9.1330   16.3615   10.8914 C   0  0  0  0  0  0  0  0  0  0  0  0
  1  2  1  0
  2  3  2  0
  3  4  1  0
  4  5  2  0
  5  6  1  0
  6  7  2  0
  7  8  1  0
  6  9  1  0
  9 10  1  0
 10 11  1  0
 11 12  2  0
 11 13  1  0
 13 14  1  0
 13 15  1  0
 10 16  1  0
 16 17  1  0
 17 18  1  1
 18 19  2  0
 19 20  1  0
 20 21  2  0
 21 22  1  0
 22 23  1  0
 22 24  2  0
  7  2  1  0
 24 18  1  0
 17  5  1  0
M  END
>  <shape_align_shape_tanimoto>  (3) 
0.63832795206025306

>  <shape_align_color_tanimoto>  (3) 
0.1449370317981758

>  <metric>  (3) 
combo

>  <metric_score>  (3) 
0.392

>  <template_pid>  (3) 
2FME

>  <template_shape_score>  (3) 
0.638

>  <template_color_score>  (3) 
0.145

>  <template_combo_score>  (3) 
0.392

$$$$
