1NJJ_shape_pose
     RDKit          3D

 34 36  0  0  0  0  0  0  0  0999 V2000
   17.7016   -1.6785   30.3943 C   0  0  0  0  0  0  0  0  0  0  0  0
   17.1916   -2.7684   29.5933 N   0  0  0  0  0  0  0  0  0  0  0  0
   15.7855   -2.7165   29.3295 C   0  0  2  0  0  0  0  0  0  0  0  0
   15.0095   -1.7439   30.1751 C   0  0  1  0  0  0  0  0  0  0  0  0
   14.8611   -0.5140   29.5181 O   0  0  0  0  0  0  0  0  0  0  0  0
   13.5842   -2.2582   30.3693 C   0  0  1  0  0  0  0  0  0  0  0  0
   12.7618   -1.1881   30.6917 O   0  0  0  0  0  0  0  0  0  0  0  0
   12.2153   -1.4017   31.9377 C   0  0  2  0  0  0  0  0  0  0  0  0
   10.7293   -1.4362   31.8226 C   0  0  1  0  0  0  0  0  0  0  0  0
   10.1308   -2.3613   32.6669 O   0  0  0  0  0  0  0  0  0  0  0  0
   10.1737   -0.0451   31.9833 C   0  0  2  0  0  0  0  0  0  0  0  0
   10.8531    0.7895   31.1396 O   0  0  0  0  0  0  0  0  0  0  0  0
   10.0783    1.5159   30.2752 C   0  0  1  0  0  0  0  0  0  0  0  0
   10.2095    2.8465   30.4245 O   0  0  0  0  0  0  0  0  0  0  0  0
    9.8364    3.6958   29.4449 C   0  0  2  0  0  0  0  0  0  0  0  0
    8.6421    4.5619   29.7788 C   0  0  2  0  0  0  0  0  0  0  0  0
    7.4221    3.8117   30.1901 C   0  0  0  0  0  0  0  0  0  0  0  0
    8.2985    5.4183   28.7334 O   0  0  0  0  0  0  0  0  0  0  0  0
    9.6809    3.1752   28.0621 C   0  0  1  0  0  0  0  0  0  0  0  0
   10.7727    3.5398   27.2347 O   0  0  0  0  0  0  0  0  0  0  0  0
    9.5073    1.7107   27.9046 C   0  0  2  0  0  0  0  0  0  0  0  0
    8.1965    1.2789   28.0934 O   0  0  0  0  0  0  0  0  0  0  0  0
   10.3739    0.9995   28.8830 C   0  0  1  0  0  0  0  0  0  0  0  0
   11.7813    1.0651   28.6279 N   0  0  0  0  0  0  0  0  0  0  0  0
   10.4110    0.4542   33.4162 C   0  0  1  0  0  0  0  0  0  0  0  0
    9.3625   -0.0121   34.3077 N   0  0  0  0  0  0  0  0  0  0  0  0
   11.7212   -0.0118   33.9539 C   0  0  0  0  0  0  0  0  0  0  0  0
   12.7236   -0.2966   32.8334 C   0  0  1  0  0  0  0  0  0  0  0  0
   13.9752   -0.6556   33.4609 N   0  0  0  0  0  0  0  0  0  0  0  0
   13.0770   -2.7788   29.1807 O   0  0  0  0  0  0  0  0  0  0  0  0
   13.7254   -3.9360   28.7864 C   0  0  0  0  0  0  0  0  0  0  0  0
   15.1195   -4.0805   29.3093 C   0  0  1  0  0  0  0  0  0  0  0  0
   15.8848   -4.9094   28.2978 C   0  0  0  0  0  0  0  0  0  0  0  0
   15.0692   -4.6882   30.5527 O   0  0  0  0  0  0  0  0  0  0  0  0
  1  2  1  0
  3  2  1  1
  3  4  1  0
  4  5  1  6
  4  6  1  0
  6  7  1  6
  8  7  1  6
  8  9  1  0
  9 10  1  1
  9 11  1  0
 11 12  1  6
 13 12  1  1
 13 14  1  0
 15 14  1  1
 15 16  1  0
 16 17  1  6
 16 18  1  0
 15 19  1  0
 19 20  1  6
 19 21  1  0
 21 22  1  1
 21 23  1  0
 23 24  1  6
 11 25  1  0
 25 26  1  1
 25 27  1  0
 27 28  1  0
 28 29  1  1
  6 30  1  0
 30 31  1  0
 31 32  1  0
 32 33  1  6
 32 34  1  0
 32  3  1  0
 28  8  1  0
 23 13  1  0
M  CHG  4   2   1  24   1  26   1  29   1
M  END
>  <shape_align_shape_tanimoto>  (1) 
0.66305697336243363

>  <shape_align_color_tanimoto>  (1) 
0.026800952911775186

>  <metric>  (1) 
shape

>  <metric_score>  (1) 
0.663

>  <template_pid>  (1) 
1NJJ

>  <template_shape_score>  (1) 
0.663

>  <template_color_score>  (1) 
0.027

>  <template_combo_score>  (1) 
0.345

$$$$
1NJJ_color_pose
     RDKit          3D

 34 36  0  0  0  0  0  0  0  0999 V2000
   15.4981   -6.5498   28.4389 C   0  0  0  0  0  0  0  0  0  0  0  0
   16.9032   -6.3069   28.3088 N   0  0  0  0  0  0  0  0  0  0  0  0
   17.3173   -4.9730   28.6405 C   0  0  2  0  0  0  0  0  0  0  0  0
   16.4860   -4.4497   29.7819 C   0  0  1  0  0  0  0  0  0  0  0  0
   17.3229   -4.2178   30.8873 O   0  0  0  0  0  0  0  0  0  0  0  0
   15.9226   -3.1074   29.3807 C   0  0  1  0  0  0  0  0  0  0  0  0
   15.1499   -2.5715   30.4186 O   0  0  0  0  0  0  0  0  0  0  0  0
   13.8855   -2.2610   29.9886 C   0  0  2  0  0  0  0  0  0  0  0  0
   13.5572   -0.7877   30.2398 C   0  0  1  0  0  0  0  0  0  0  0  0
   14.2542    0.0441   29.3794 O   0  0  0  0  0  0  0  0  0  0  0  0
   12.0795   -0.5198   30.1976 C   0  0  2  0  0  0  0  0  0  0  0  0
   11.4781   -0.4847   31.4309 O   0  0  0  0  0  0  0  0  0  0  0  0
   10.8514    0.7080   31.7482 C   0  0  1  0  0  0  0  0  0  0  0  0
    9.5107    0.5920   31.9803 O   0  0  0  0  0  0  0  0  0  0  0  0
    9.1262    0.0008   33.1428 C   0  0  2  0  0  0  0  0  0  0  0  0
    7.8732    0.7362   33.6004 C   0  0  2  0  0  0  0  0  0  0  0  0
    7.2875    0.1599   34.8583 C   0  0  0  0  0  0  0  0  0  0  0  0
    6.9189    0.5736   32.5698 O   0  0  0  0  0  0  0  0  0  0  0  0
   10.0690   -0.1091   34.2626 C   0  0  1  0  0  0  0  0  0  0  0  0
   10.0548   -1.3879   34.8369 O   0  0  0  0  0  0  0  0  0  0  0  0
   11.5106    0.2187   33.9856 C   0  0  2  0  0  0  0  0  0  0  0  0
   12.1217    0.6446   35.1781 O   0  0  0  0  0  0  0  0  0  0  0  0
   11.5135    1.3258   32.9534 C   0  0  1  0  0  0  0  0  0  0  0  0
   12.8649    1.7438   32.7375 N   0  0  0  0  0  0  0  0  0  0  0  0
   11.3811   -1.5211   29.3012 C   0  0  1  0  0  0  0  0  0  0  0  0
   11.7762   -1.3839   27.9330 N   0  0  0  0  0  0  0  0  0  0  0  0
   11.5542   -2.8990   29.8742 C   0  0  0  0  0  0  0  0  0  0  0  0
   12.8030   -3.0272   30.7027 C   0  0  1  0  0  0  0  0  0  0  0  0
   13.0823   -4.4383   30.8407 N   0  0  0  0  0  0  0  0  0  0  0  0
   17.0313   -2.3153   29.0784 O   0  0  0  0  0  0  0  0  0  0  0  0
   17.3879   -2.6246   27.7722 C   0  0  0  0  0  0  0  0  0  0  0  0
   17.2664   -4.0788   27.4228 C   0  0  1  0  0  0  0  0  0  0  0  0
   18.4621   -4.4099   26.5373 C   0  0  0  0  0  0  0  0  0  0  0  0
   16.1275   -4.3697   26.6567 O   0  0  0  0  0  0  0  0  0  0  0  0
  1  2  1  0
  3  2  1  6
  3  4  1  0
  4  5  1  1
  4  6  1  0
  6  7  1  1
  8  7  1  1
  8  9  1  0
  9 10  1  6
  9 11  1  0
 11 12  1  1
 13 12  1  1
 13 14  1  0
 15 14  1  6
 15 16  1  0
 16 17  1  1
 16 18  1  0
 15 19  1  0
 19 20  1  6
 19 21  1  0
 21 22  1  1
 21 23  1  0
 23 24  1  6
 11 25  1  0
 25 26  1  6
 25 27  1  0
 27 28  1  0
 28 29  1  6
  6 30  1  0
 30 31  1  0
 31 32  1  0
 32 33  1  6
 32 34  1  0
 32  3  1  0
 28  8  1  0
 23 13  1  0
M  CHG  4   2   1  24   1  26   1  29   1
M  END
>  <shape_align_shape_tanimoto>  (2) 
0.50681478848767647

>  <shape_align_color_tanimoto>  (2) 
0.088184546285017429

>  <metric>  (2) 
color

>  <metric_score>  (2) 
0.088

>  <template_pid>  (2) 
1NJJ

>  <template_shape_score>  (2) 
0.507

>  <template_color_score>  (2) 
0.088

>  <template_combo_score>  (2) 
0.297

$$$$
1NJJ_combo_pose
     RDKit          3D

 34 36  0  0  0  0  0  0  0  0999 V2000
   16.0168   -5.9718   29.8593 C   0  0  0  0  0  0  0  0  0  0  0  0
   15.2629   -5.0062   29.0670 N   0  0  0  0  0  0  0  0  0  0  0  0
   15.2460   -3.6894   29.7224 C   0  0  2  0  0  0  0  0  0  0  0  0
   14.0328   -2.9592   29.1937 C   0  0  1  0  0  0  0  0  0  0  0  0
   12.9301   -3.5350   29.8455 O   0  0  0  0  0  0  0  0  0  0  0  0
   14.0701   -1.4807   29.3977 C   0  0  1  0  0  0  0  0  0  0  0  0
   12.9329   -1.0712   30.0488 O   0  0  0  0  0  0  0  0  0  0  0  0
   12.2115   -0.0780   29.3705 C   0  0  2  0  0  0  0  0  0  0  0  0
   12.2746    1.1838   30.1504 C   0  0  1  0  0  0  0  0  0  0  0  0
   12.6555    2.2875   29.4003 O   0  0  0  0  0  0  0  0  0  0  0  0
   10.9224    1.4084   30.8305 C   0  0  2  0  0  0  0  0  0  0  0  0
   10.6179    0.2035   31.4604 O   0  0  0  0  0  0  0  0  0  0  0  0
   10.4653    0.2748   32.8220 C   0  0  1  0  0  0  0  0  0  0  0  0
    9.2332   -0.1195   33.2808 O   0  0  0  0  0  0  0  0  0  0  0  0
    9.0560    0.1356   34.6153 C   0  0  2  0  0  0  0  0  0  0  0  0
    8.8035    1.5914   34.9215 C   0  0  2  0  0  0  0  0  0  0  0  0
    8.5641    1.7480   36.4130 C   0  0  0  0  0  0  0  0  0  0  0  0
    7.6682    2.0783   34.2855 O   0  0  0  0  0  0  0  0  0  0  0  0
   10.1637   -0.3557   35.4917 C   0  0  1  0  0  0  0  0  0  0  0  0
   10.0877   -1.7268   35.7294 O   0  0  0  0  0  0  0  0  0  0  0  0
   11.5343   -0.0488   34.9674 C   0  0  2  0  0  0  0  0  0  0  0  0
   11.7942    1.3280   34.9350 O   0  0  0  0  0  0  0  0  0  0  0  0
   11.5582   -0.5135   33.5153 C   0  0  1  0  0  0  0  0  0  0  0  0
   11.3991   -1.9331   33.3981 N   0  0  0  0  0  0  0  0  0  0  0  0
    9.8470    1.6251   29.8034 C   0  0  1  0  0  0  0  0  0  0  0  0
    9.9676    2.8832   29.1057 N   0  0  0  0  0  0  0  0  0  0  0  0
    9.7668    0.4458   28.9160 C   0  0  0  0  0  0  0  0  0  0  0  0
   10.8649   -0.5460   28.9581 C   0  0  1  0  0  0  0  0  0  0  0  0
   10.9883   -1.2991   27.7099 N   0  0  0  0  0  0  0  0  0  0  0  0
   15.2360   -1.1666   30.1103 O   0  0  0  0  0  0  0  0  0  0  0  0
   16.2912   -1.5280   29.2614 C   0  0  0  0  0  0  0  0  0  0  0  0
   16.5443   -3.0007   29.4457 C   0  0  1  0  0  0  0  0  0  0  0  0
   17.4799   -3.1228   30.6471 C   0  0  0  0  0  0  0  0  0  0  0  0
   17.1573   -3.5882   28.3378 O   0  0  0  0  0  0  0  0  0  0  0  0
  1  2  1  0
  3  2  1  6
  3  4  1  0
  4  5  1  1
  4  6  1  0
  6  7  1  1
  8  7  1  1
  8  9  1  0
  9 10  1  6
  9 11  1  0
 11 12  1  6
 13 12  1  6
 13 14  1  0
 15 14  1  6
 15 16  1  0
 16 17  1  1
 16 18  1  0
 15 19  1  0
 19 20  1  6
 19 21  1  0
 21 22  1  6
 21 23  1  0
 23 24  1  1
 11 25  1  0
 25 26  1  6
 25 27  1  0
 27 28  1  0
 28 29  1  6
  6 30  1  0
 30 31  1  0
 31 32  1  0
 32 33  1  1
 32 34  1  0
 32  3  1  0
 28  8  1  0
 23 13  1  0
M  CHG  4   2   1  24   1  26   1  29   1
M  END
>  <shape_align_shape_tanimoto>  (3) 
0.66124637190936919

>  <shape_align_color_tanimoto>  (3) 
0.046802366918878825

>  <metric>  (3) 
combo

>  <metric_score>  (3) 
0.354

>  <template_pid>  (3) 
1NJJ

>  <template_shape_score>  (3) 
0.661

>  <template_color_score>  (3) 
0.047

>  <template_combo_score>  (3) 
0.354

$$$$
