4Q1E_shape_pose
     RDKit          3D

 29 31  0  0  0  0  0  0  0  0999 V2000
    1.1272   47.2422   -6.2212 C   0  0  0  0  0  0  0  0  0  0  0  0
    0.5345   47.3214   -7.5001 O   0  0  0  0  0  0  0  0  0  0  0  0
    0.7504   46.3639   -8.4773 C   0  0  0  0  0  0  0  0  0  0  0  0
    1.5731   45.3078   -8.1725 C   0  0  0  0  0  0  0  0  0  0  0  0
    1.8219   44.3179   -9.1227 C   0  0  0  0  0  0  0  0  0  0  0  0
    1.1973   44.4863  -10.3373 C   0  0  0  0  0  0  0  0  0  0  0  0
    1.4410   43.4337  -11.4039 C   0  0  0  0  0  0  0  0  0  0  0  0
    1.0446   43.2928  -12.5503 N   0  0  0  0  0  0  0  0  0  0  0  0
    1.3518   42.3089  -13.3626 C   0  0  0  0  0  0  0  0  0  0  0  0
    0.8316   42.1856  -14.7748 C   0  0  1  0  0  0  0  0  0  0  0  0
   -0.4498   41.3771  -14.7740 C   0  0  0  0  0  0  0  0  0  0  0  0
    0.4444   43.7942  -15.4748 S   0  0  0  0  0  0  0  0  0  0  0  0
    1.8901   44.8154  -15.7051 C   0  0  0  0  0  0  0  0  0  0  0  0
    3.1376   44.4000  -15.3794 N   0  0  0  0  0  0  0  0  0  0  0  0
    4.1992   45.2298  -15.5804 C   0  0  0  0  0  0  0  0  0  0  0  0
    5.5226   44.7981  -15.2392 N   0  0  0  0  0  0  0  0  0  0  0  0
    3.9737   46.4952  -16.1200 C   0  0  0  0  0  0  0  0  0  0  0  0
    2.6827   46.9076  -16.4501 C   0  0  0  0  0  0  0  0  0  0  0  0
    2.4276   48.1991  -17.0048 N   0  0  0  0  0  0  0  0  0  0  0  0
    1.7025   46.0390  -16.2233 N   0  0  0  0  0  0  0  0  0  0  0  0
    2.2027   41.3693  -12.8336 C   0  0  0  0  0  0  0  0  0  0  0  0
    2.8080   40.1283  -13.3451 C   0  0  0  0  0  0  0  0  0  0  0  0
    2.4946   42.0325  -11.1187 S   0  0  0  0  0  0  0  0  0  0  0  0
    0.3842   45.5197  -10.6536 C   0  0  0  0  0  0  0  0  0  0  0  0
    0.1310   46.5024   -9.7269 C   0  0  0  0  0  0  0  0  0  0  0  0
   -0.6571   47.5957   -9.8995 O   0  0  0  0  0  0  0  0  0  0  0  0
   -1.3873   48.0696  -10.9520 C   0  0  0  0  0  0  0  0  0  0  0  0
   -0.6363   48.4429  -12.2043 C   0  0  0  0  0  0  0  0  0  0  0  0
   -1.6251   48.8958  -13.0959 F   0  0  0  0  0  0  0  0  0  0  0  0
  1  2  1  0
  2  3  1  0
  3  4  2  0
  4  5  1  0
  5  6  2  0
  6  7  1  0
  7  8  2  0
  8  9  1  0
  9 10  1  0
 10 11  1  1
 10 12  1  0
 12 13  1  0
 13 14  2  0
 14 15  1  0
 15 16  1  0
 15 17  2  0
 17 18  1  0
 18 19  1  0
 18 20  2  0
  9 21  2  0
 21 22  1  0
 21 23  1  0
  6 24  1  0
 24 25  2  0
 25 26  1  0
 26 27  1  0
 27 28  1  0
 28 29  1  0
 25  3  1  0
 23  7  1  0
 20 13  1  0
M  END
>  <shape_align_shape_tanimoto>  (1) 
0.20364001585202723

>  <shape_align_color_tanimoto>  (1) 
0.022126100274537708

>  <metric>  (1) 
shape

>  <metric_score>  (1) 
0.204

>  <template_pid>  (1) 
4Q1E

>  <template_shape_score>  (1) 
0.204

>  <template_color_score>  (1) 
0.022

>  <template_combo_score>  (1) 
0.113

$$$$
4Q1E_color_pose
     RDKit          3D

 29 31  0  0  0  0  0  0  0  0999 V2000
   -1.5661   49.6169  -10.4514 C   0  0  0  0  0  0  0  0  0  0  0  0
   -1.0741   48.8671   -9.3779 O   0  0  0  0  0  0  0  0  0  0  0  0
   -0.4466   47.6582   -9.6196 C   0  0  0  0  0  0  0  0  0  0  0  0
   -0.3378   47.2493  -10.9252 C   0  0  0  0  0  0  0  0  0  0  0  0
    0.2722   46.0598  -11.2514 C   0  0  0  0  0  0  0  0  0  0  0  0
    0.7740   45.2864  -10.2295 C   0  0  0  0  0  0  0  0  0  0  0  0
    1.4174   44.0411  -10.5757 C   0  0  0  0  0  0  0  0  0  0  0  0
    1.7119   43.3753  -11.5450 N   0  0  0  0  0  0  0  0  0  0  0  0
    2.3126   42.2423  -11.6198 C   0  0  0  0  0  0  0  0  0  0  0  0
    2.6544   41.4441  -12.8228 C   0  0  1  0  0  0  0  0  0  0  0  0
    1.4977   40.5495  -13.2408 C   0  0  0  0  0  0  0  0  0  0  0  0
    3.2873   42.4094  -14.2023 S   0  0  0  0  0  0  0  0  0  0  0  0
    2.0602   43.4790  -14.9004 C   0  0  0  0  0  0  0  0  0  0  0  0
    1.8416   44.7477  -14.5147 N   0  0  0  0  0  0  0  0  0  0  0  0
    0.8744   45.4961  -15.1248 C   0  0  0  0  0  0  0  0  0  0  0  0
    0.6157   46.8428  -14.7584 N   0  0  0  0  0  0  0  0  0  0  0  0
    0.0999   44.9714  -16.1469 C   0  0  0  0  0  0  0  0  0  0  0  0
    0.3372   43.6681  -16.5294 C   0  0  0  0  0  0  0  0  0  0  0  0
   -0.4548   43.1186  -17.5803 N   0  0  0  0  0  0  0  0  0  0  0  0
    1.2969   42.9587  -15.9092 N   0  0  0  0  0  0  0  0  0  0  0  0
    2.6735   41.7209  -10.3095 C   0  0  0  0  0  0  0  0  0  0  0  0
    3.3569   40.4753  -10.0249 C   0  0  0  0  0  0  0  0  0  0  0  0
    2.1044   42.9158   -9.2150 S   0  0  0  0  0  0  0  0  0  0  0  0
    0.6565   45.7163   -8.9016 C   0  0  0  0  0  0  0  0  0  0  0  0
    0.0561   46.8890   -8.5493 C   0  0  0  0  0  0  0  0  0  0  0  0
   -0.1238   47.4078   -7.3136 O   0  0  0  0  0  0  0  0  0  0  0  0
    0.2255   46.8204   -6.1146 C   0  0  0  0  0  0  0  0  0  0  0  0
   -0.5895   45.5867   -5.8617 C   0  0  0  0  0  0  0  0  0  0  0  0
   -1.9176   46.0093   -5.8169 F   0  0  0  0  0  0  0  0  0  0  0  0
  1  2  1  0
  2  3  1  0
  3  4  2  0
  4  5  1  0
  5  6  2  0
  6  7  1  0
  7  8  2  0
  8  9  1  0
  9 10  1  0
 10 11  1  6
 10 12  1  0
 12 13  1  0
 13 14  2  0
 14 15  1  0
 15 16  1  0
 15 17  2  0
 17 18  1  0
 18 19  1  0
 18 20  2  0
  9 21  2  0
 21 22  1  0
 21 23  1  0
  6 24  1  0
 24 25  2  0
 25 26  1  0
 26 27  1  0
 27 28  1  0
 28 29  1  0
 25  3  1  0
 23  7  1  0
 20 13  1  0
M  END
>  <shape_align_shape_tanimoto>  (2) 
0.18448440628774238

>  <shape_align_color_tanimoto>  (2) 
0.04527475923864651

>  <metric>  (2) 
color

>  <metric_score>  (2) 
0.045

>  <template_pid>  (2) 
4Q1E

>  <template_shape_score>  (2) 
0.184

>  <template_color_score>  (2) 
0.045

>  <template_combo_score>  (2) 
0.115

$$$$
4Q1E_combo_pose
     RDKit          3D

 29 31  0  0  0  0  0  0  0  0999 V2000
    2.4730   46.3246  -19.9610 C   0  0  0  0  0  0  0  0  0  0  0  0
    2.7807   45.0108  -19.4904 O   0  0  0  0  0  0  0  0  0  0  0  0
    2.6594   44.6868  -18.1449 C   0  0  0  0  0  0  0  0  0  0  0  0
    2.2377   45.6307  -17.2316 C   0  0  0  0  0  0  0  0  0  0  0  0
    2.1366   45.2492  -15.9073 C   0  0  0  0  0  0  0  0  0  0  0  0
    2.4584   43.9625  -15.5738 C   0  0  0  0  0  0  0  0  0  0  0  0
    2.3590   43.5240  -14.1440 C   0  0  0  0  0  0  0  0  0  0  0  0
    2.0371   44.0964  -13.1627 N   0  0  0  0  0  0  0  0  0  0  0  0
    1.9767   43.6249  -11.9149 C   0  0  0  0  0  0  0  0  0  0  0  0
    1.5045   44.5442  -10.8115 C   0  0  1  0  0  0  0  0  0  0  0  0
    0.0474   44.9405  -11.1126 C   0  0  0  0  0  0  0  0  0  0  0  0
    1.4951   43.7712   -9.2110 S   0  0  0  0  0  0  0  0  0  0  0  0
    0.2104   42.5472   -9.0340 C   0  0  0  0  0  0  0  0  0  0  0  0
   -0.6349   42.2819  -10.0439 N   0  0  0  0  0  0  0  0  0  0  0  0
   -1.6195   41.3870   -9.9983 C   0  0  0  0  0  0  0  0  0  0  0  0
   -2.4603   41.1832  -11.1276 N   0  0  0  0  0  0  0  0  0  0  0  0
   -1.7759   40.6798   -8.8123 C   0  0  0  0  0  0  0  0  0  0  0  0
   -0.9124   40.9327   -7.7430 C   0  0  0  0  0  0  0  0  0  0  0  0
   -1.1037   40.1930   -6.5544 N   0  0  0  0  0  0  0  0  0  0  0  0
    0.0673   41.8683   -7.8824 N   0  0  0  0  0  0  0  0  0  0  0  0
    2.3453   42.3067  -11.8149 C   0  0  0  0  0  0  0  0  0  0  0  0
    2.4763   41.3381  -10.7262 C   0  0  0  0  0  0  0  0  0  0  0  0
    2.7566   41.8582  -13.5932 S   0  0  0  0  0  0  0  0  0  0  0  0
    2.8786   43.0115  -16.4648 C   0  0  0  0  0  0  0  0  0  0  0  0
    2.9813   43.3860  -17.7861 C   0  0  0  0  0  0  0  0  0  0  0  0
    3.4021   42.4709  -18.7454 O   0  0  0  0  0  0  0  0  0  0  0  0
    3.7114   41.1631  -18.2982 C   0  0  0  0  0  0  0  0  0  0  0  0
    4.1523   40.2953  -19.4592 C   0  0  0  0  0  0  0  0  0  0  0  0
    3.1491   40.2097  -20.4013 F   0  0  0  0  0  0  0  0  0  0  0  0
  1  2  1  0
  2  3  1  0
  3  4  2  0
  4  5  1  0
  5  6  2  0
  6  7  1  0
  7  8  2  0
  8  9  1  0
  9 10  1  0
 10 11  1  6
 10 12  1  0
 12 13  1  0
 13 14  2  0
 14 15  1  0
 15 16  1  0
 15 17  2  0
 17 18  1  0
 18 19  1  0
 18 20  2  0
  9 21  2  0
 21 22  1  0
 21 23  1  0
  6 24  1  0
 24 25  2  0
 25 26  1  0
 26 27  1  0
 27 28  1  0
 28 29  1  0
 25  3  1  0
 23  7  1  0
 20 13  1  0
M  END
>  <shape_align_shape_tanimoto>  (3) 
0.19996033222039569

>  <shape_align_color_tanimoto>  (3) 
0.030261943578221692

>  <metric>  (3) 
combo

>  <metric_score>  (3) 
0.115

>  <template_pid>  (3) 
4Q1E

>  <template_shape_score>  (3) 
0.200

>  <template_color_score>  (3) 
0.030

>  <template_combo_score>  (3) 
0.115

$$$$
