1Y57_shape_pose
     RDKit          3D

 36 40  0  0  0  0  0  0  0  0999 V2000
   15.4911   -7.3182   41.1006 C   0  0  0  0  0  0  0  0  0  0  0  0
   15.6216   -6.3049   42.1520 N   0  0  1  0  0  0  0  0  0  0  0  0
   16.5014   -5.2850   41.6658 C   0  0  0  0  0  0  0  0  0  0  0  0
   16.5870   -4.0634   42.5207 C   0  0  0  0  0  0  0  0  0  0  0  0
   15.3301   -3.5419   42.9586 N   0  0  2  0  0  0  0  0  0  0  0  0
   15.5180   -2.4691   43.8821 C   0  0  0  0  0  0  0  0  0  0  0  0
   14.3514   -2.1674   44.7362 C   0  0  0  0  0  0  0  0  0  0  0  0
   14.1416   -2.7351   45.9763 C   0  0  0  0  0  0  0  0  0  0  0  0
   13.0266   -2.4209   46.7493 C   0  0  0  0  0  0  0  0  0  0  0  0
   12.0913   -1.5162   46.2776 C   0  0  0  0  0  0  0  0  0  0  0  0
   10.9214   -1.1941   47.1232 C   0  0  0  0  0  0  0  0  0  0  0  0
   10.9053   -1.7474   48.2429 O   0  0  0  0  0  0  0  0  0  0  0  0
    9.8927   -0.3367   46.7261 N   0  0  0  0  0  0  0  0  0  0  0  0
    8.7487    0.0312   47.4618 C   0  0  0  0  0  0  0  0  0  0  0  0
    8.4480   -0.3735   48.7349 C   0  0  0  0  0  0  0  0  0  0  0  0
    7.2920    0.0326   49.4103 C   0  0  0  0  0  0  0  0  0  0  0  0
    6.3916    0.8772   48.8012 C   0  0  0  0  0  0  0  0  0  0  0  0
    6.6874    1.2883   47.5208 C   0  0  0  0  0  0  0  0  0  0  0  0
    5.7876    2.1693   46.8605 N   0  0  0  0  0  0  0  0  0  0  0  0
    5.9459    2.5736   45.5083 C   0  0  0  0  0  0  0  0  0  0  0  0
    5.2450    1.8713   44.5784 N   0  0  0  0  0  0  0  0  0  0  0  0
    5.3016    2.1394   43.2571 C   0  0  0  0  0  0  0  0  0  0  0  0
    6.1332    3.1948   42.8925 C   0  0  0  0  0  0  0  0  0  0  0  0
    6.8518    3.9192   43.8171 C   0  0  0  0  0  0  0  0  0  0  0  0
    7.7308    5.0213   43.4613 C   0  0  0  0  0  0  0  0  0  0  0  0
    8.4045    5.6674   44.4753 C   0  0  0  0  0  0  0  0  0  0  0  0
    9.2531    6.7277   44.1565 C   0  0  0  0  0  0  0  0  0  0  0  0
    9.4198    7.1308   42.8331 C   0  0  0  0  0  0  0  0  0  0  0  0
    8.7540    6.4877   41.8604 N   0  0  0  0  0  0  0  0  0  0  0  0
    7.9276    5.4552   42.1701 C   0  0  0  0  0  0  0  0  0  0  0  0
    6.7252    3.5731   45.1000 N   0  0  0  0  0  0  0  0  0  0  0  0
    7.8162    0.8896   46.8652 C   0  0  0  0  0  0  0  0  0  0  0  0
   12.2916   -0.9461   45.0437 C   0  0  0  0  0  0  0  0  0  0  0  0
   13.4001   -1.2614   44.2805 C   0  0  0  0  0  0  0  0  0  0  0  0
   14.5232   -4.6324   43.4669 C   0  0  0  0  0  0  0  0  0  0  0  0
   14.3239   -5.7021   42.4027 C   0  0  0  0  0  0  0  0  0  0  0  0
  2  1  1  6
  2  3  1  0
  3  4  1  0
  4  5  1  0
  5  6  1  1
  6  7  1  0
  7  8  2  0
  8  9  1  0
  9 10  2  0
 10 11  1  0
 11 12  2  0
 11 13  1  0
 13 14  1  0
 14 15  2  0
 15 16  1  0
 16 17  2  0
 17 18  1  0
 18 19  1  0
 19 20  1  0
 20 21  2  0
 21 22  1  0
 22 23  2  0
 23 24  1  0
 24 25  1  0
 25 26  2  0
 26 27  1  0
 27 28  2  0
 28 29  1  0
 29 30  2  0
 24 31  2  0
 18 32  2  0
 10 33  1  0
 33 34  2  0
  5 35  1  0
 35 36  1  0
 36  2  1  0
 34  7  1  0
 32 14  1  0
 31 20  1  0
 30 25  1  0
M  CHG  2   2   1   5   1
M  END
>  <shape_align_shape_tanimoto>  (1) 
0.59679677897591576

>  <shape_align_color_tanimoto>  (1) 
0.053379193861824055

>  <metric>  (1) 
shape

>  <metric_score>  (1) 
0.597

>  <template_pid>  (1) 
1Y57

>  <template_shape_score>  (1) 
0.597

>  <template_color_score>  (1) 
0.053

>  <template_combo_score>  (1) 
0.325

$$$$
1Y57_color_pose
     RDKit          3D

 36 40  0  0  0  0  0  0  0  0999 V2000
    5.5094    3.7018   37.6590 C   0  0  0  0  0  0  0  0  0  0  0  0
    5.7361    3.4164   39.0442 N   0  0  1  0  0  0  0  0  0  0  0  0
    6.5068    4.4036   39.7496 C   0  0  0  0  0  0  0  0  0  0  0  0
    6.1267    4.3404   41.2325 C   0  0  0  0  0  0  0  0  0  0  0  0
    4.8136    4.9535   41.3752 N   0  0  2  0  0  0  0  0  0  0  0  0
    4.1996    4.6853   42.6403 C   0  0  0  0  0  0  0  0  0  0  0  0
    4.9577    3.7371   43.4935 C   0  0  0  0  0  0  0  0  0  0  0  0
    4.7697    2.3715   43.4653 C   0  0  0  0  0  0  0  0  0  0  0  0
    5.4861    1.5095   44.2673 C   0  0  0  0  0  0  0  0  0  0  0  0
    6.4373    1.9839   45.1470 C   0  0  0  0  0  0  0  0  0  0  0  0
    7.1670    1.0462   45.9712 C   0  0  0  0  0  0  0  0  0  0  0  0
    6.9041   -0.1815   45.8603 O   0  0  0  0  0  0  0  0  0  0  0  0
    8.1595    1.4339   46.8947 N   0  0  0  0  0  0  0  0  0  0  0  0
    8.8029    0.3972   47.6468 C   0  0  0  0  0  0  0  0  0  0  0  0
    8.2687    0.0157   48.8569 C   0  0  0  0  0  0  0  0  0  0  0  0
    8.9093   -0.9829   49.5554 C   0  0  0  0  0  0  0  0  0  0  0  0
   10.0443   -1.5829   49.0666 C   0  0  0  0  0  0  0  0  0  0  0  0
   10.6122   -1.2145   47.8351 C   0  0  0  0  0  0  0  0  0  0  0  0
   11.7775   -1.8732   47.3965 N   0  0  0  0  0  0  0  0  0  0  0  0
   12.4802   -1.6479   46.1987 C   0  0  0  0  0  0  0  0  0  0  0  0
   12.1653   -0.7606   45.2534 N   0  0  0  0  0  0  0  0  0  0  0  0
   12.8439   -0.5545   44.1128 C   0  0  0  0  0  0  0  0  0  0  0  0
   13.9642   -1.3314   43.9057 C   0  0  0  0  0  0  0  0  0  0  0  0
   14.3368   -2.2633   44.8470 C   0  0  0  0  0  0  0  0  0  0  0  0
   15.5046   -3.0940   44.6620 C   0  0  0  0  0  0  0  0  0  0  0  0
   16.3344   -3.0393   43.5630 C   0  0  0  0  0  0  0  0  0  0  0  0
   17.4446   -3.8443   43.4099 C   0  0  0  0  0  0  0  0  0  0  0  0
   17.7323   -4.7454   44.4091 C   0  0  0  0  0  0  0  0  0  0  0  0
   16.9389   -4.8175   45.4897 N   0  0  0  0  0  0  0  0  0  0  0  0
   15.8552   -4.0300   45.6364 C   0  0  0  0  0  0  0  0  0  0  0  0
   13.5983   -2.3955   45.9502 N   0  0  0  0  0  0  0  0  0  0  0  0
    9.9551   -0.2193   47.1618 C   0  0  0  0  0  0  0  0  0  0  0  0
    6.6389    3.3373   45.1899 C   0  0  0  0  0  0  0  0  0  0  0  0
    5.9199    4.2159   44.3834 C   0  0  0  0  0  0  0  0  0  0  0  0
    4.0117    4.5779   40.2295 C   0  0  0  0  0  0  0  0  0  0  0  0
    4.4699    3.2204   39.7437 C   0  0  0  0  0  0  0  0  0  0  0  0
  2  1  1  6
  2  3  1  0
  3  4  1  0
  4  5  1  0
  5  6  1  1
  6  7  1  0
  7  8  2  0
  8  9  1  0
  9 10  2  0
 10 11  1  0
 11 12  2  0
 11 13  1  0
 13 14  1  0
 14 15  2  0
 15 16  1  0
 16 17  2  0
 17 18  1  0
 18 19  1  0
 19 20  1  0
 20 21  2  0
 21 22  1  0
 22 23  2  0
 23 24  1  0
 24 25  1  0
 25 26  2  0
 26 27  1  0
 27 28  2  0
 28 29  1  0
 29 30  2  0
 24 31  2  0
 18 32  2  0
 10 33  1  0
 33 34  2  0
  5 35  1  0
 35 36  1  0
 36  2  1  0
 34  7  1  0
 32 14  1  0
 31 20  1  0
 30 25  1  0
M  CHG  2   2   1   5   1
M  END
>  <shape_align_shape_tanimoto>  (2) 
0.49893965989936573

>  <shape_align_color_tanimoto>  (2) 
0.087969345525791859

>  <metric>  (2) 
color

>  <metric_score>  (2) 
0.088

>  <template_pid>  (2) 
1Y57

>  <template_shape_score>  (2) 
0.499

>  <template_color_score>  (2) 
0.088

>  <template_combo_score>  (2) 
0.293

$$$$
1Y57_combo_pose
     RDKit          3D

 36 40  0  0  0  0  0  0  0  0999 V2000
   15.4911   -7.3182   41.1006 C   0  0  0  0  0  0  0  0  0  0  0  0
   15.6216   -6.3049   42.1520 N   0  0  1  0  0  0  0  0  0  0  0  0
   16.5014   -5.2850   41.6658 C   0  0  0  0  0  0  0  0  0  0  0  0
   16.5870   -4.0634   42.5207 C   0  0  0  0  0  0  0  0  0  0  0  0
   15.3301   -3.5419   42.9586 N   0  0  2  0  0  0  0  0  0  0  0  0
   15.5180   -2.4691   43.8821 C   0  0  0  0  0  0  0  0  0  0  0  0
   14.3514   -2.1674   44.7362 C   0  0  0  0  0  0  0  0  0  0  0  0
   14.1416   -2.7351   45.9763 C   0  0  0  0  0  0  0  0  0  0  0  0
   13.0266   -2.4209   46.7493 C   0  0  0  0  0  0  0  0  0  0  0  0
   12.0913   -1.5162   46.2776 C   0  0  0  0  0  0  0  0  0  0  0  0
   10.9214   -1.1941   47.1232 C   0  0  0  0  0  0  0  0  0  0  0  0
   10.9053   -1.7474   48.2429 O   0  0  0  0  0  0  0  0  0  0  0  0
    9.8927   -0.3367   46.7261 N   0  0  0  0  0  0  0  0  0  0  0  0
    8.7487    0.0312   47.4618 C   0  0  0  0  0  0  0  0  0  0  0  0
    8.4480   -0.3735   48.7349 C   0  0  0  0  0  0  0  0  0  0  0  0
    7.2920    0.0326   49.4103 C   0  0  0  0  0  0  0  0  0  0  0  0
    6.3916    0.8772   48.8012 C   0  0  0  0  0  0  0  0  0  0  0  0
    6.6874    1.2883   47.5208 C   0  0  0  0  0  0  0  0  0  0  0  0
    5.7876    2.1693   46.8605 N   0  0  0  0  0  0  0  0  0  0  0  0
    5.9459    2.5736   45.5083 C   0  0  0  0  0  0  0  0  0  0  0  0
    5.2450    1.8713   44.5784 N   0  0  0  0  0  0  0  0  0  0  0  0
    5.3016    2.1394   43.2571 C   0  0  0  0  0  0  0  0  0  0  0  0
    6.1332    3.1948   42.8925 C   0  0  0  0  0  0  0  0  0  0  0  0
    6.8518    3.9192   43.8171 C   0  0  0  0  0  0  0  0  0  0  0  0
    7.7308    5.0213   43.4613 C   0  0  0  0  0  0  0  0  0  0  0  0
    8.4045    5.6674   44.4753 C   0  0  0  0  0  0  0  0  0  0  0  0
    9.2531    6.7277   44.1565 C   0  0  0  0  0  0  0  0  0  0  0  0
    9.4198    7.1308   42.8331 C   0  0  0  0  0  0  0  0  0  0  0  0
    8.7540    6.4877   41.8604 N   0  0  0  0  0  0  0  0  0  0  0  0
    7.9276    5.4552   42.1701 C   0  0  0  0  0  0  0  0  0  0  0  0
    6.7252    3.5731   45.1000 N   0  0  0  0  0  0  0  0  0  0  0  0
    7.8162    0.8896   46.8652 C   0  0  0  0  0  0  0  0  0  0  0  0
   12.2916   -0.9461   45.0437 C   0  0  0  0  0  0  0  0  0  0  0  0
   13.4001   -1.2614   44.2805 C   0  0  0  0  0  0  0  0  0  0  0  0
   14.5232   -4.6324   43.4669 C   0  0  0  0  0  0  0  0  0  0  0  0
   14.3239   -5.7021   42.4027 C   0  0  0  0  0  0  0  0  0  0  0  0
  2  1  1  6
  2  3  1  0
  3  4  1  0
  4  5  1  0
  5  6  1  1
  6  7  1  0
  7  8  2  0
  8  9  1  0
  9 10  2  0
 10 11  1  0
 11 12  2  0
 11 13  1  0
 13 14  1  0
 14 15  2  0
 15 16  1  0
 16 17  2  0
 17 18  1  0
 18 19  1  0
 19 20  1  0
 20 21  2  0
 21 22  1  0
 22 23  2  0
 23 24  1  0
 24 25  1  0
 25 26  2  0
 26 27  1  0
 27 28  2  0
 28 29  1  0
 29 30  2  0
 24 31  2  0
 18 32  2  0
 10 33  1  0
 33 34  2  0
  5 35  1  0
 35 36  1  0
 36  2  1  0
 34  7  1  0
 32 14  1  0
 31 20  1  0
 30 25  1  0
M  CHG  2   2   1   5   1
M  END
>  <shape_align_shape_tanimoto>  (3) 
0.59679677897591576

>  <shape_align_color_tanimoto>  (3) 
0.053379193861824055

>  <metric>  (3) 
combo

>  <metric_score>  (3) 
0.325

>  <template_pid>  (3) 
1Y57

>  <template_shape_score>  (3) 
0.597

>  <template_color_score>  (3) 
0.053

>  <template_combo_score>  (3) 
0.325

$$$$
