6MA4_shape_pose
     RDKit          3D

 43 46  0  0  0  0  0  0  0  0999 V2000
   78.5213    0.5425  -35.7736 O   0  0  0  0  0  0  0  0  0  0  0  0
   78.9327   -0.6221  -35.6328 C   0  0  0  0  0  0  0  0  0  0  0  0
   79.3804   -1.2585  -36.8124 O   0  0  0  0  0  0  0  0  0  0  0  0
   79.0090   -1.4103  -34.3989 C   0  0  0  0  0  0  0  0  0  0  0  0
   78.6245   -0.5764  -33.2146 C   0  0  0  0  0  0  0  0  0  0  0  0
   79.5968    0.5355  -33.0599 C   0  0  0  0  0  0  0  0  0  0  0  0
   79.3088    1.4363  -31.8884 C   0  0  0  0  0  0  0  0  0  0  0  0
   80.2661    2.4283  -31.8108 O   0  0  0  0  0  0  0  0  0  0  0  0
   81.5792    2.3570  -31.5552 C   0  0  0  0  0  0  0  0  0  0  0  0
   82.3215    1.2357  -31.2597 C   0  0  0  0  0  0  0  0  0  0  0  0
   83.6876    1.2684  -31.0072 C   0  0  0  0  0  0  0  0  0  0  0  0
   84.3721    2.4587  -31.0425 C   0  0  0  0  0  0  0  0  0  0  0  0
   83.6609    3.5917  -31.3322 C   0  0  0  0  0  0  0  0  0  0  0  0
   82.3006    3.5691  -31.5854 C   0  0  0  0  0  0  0  0  0  0  0  0
   81.5546    4.8613  -31.8912 C   0  0  1  0  0  0  0  0  0  0  0  0
   81.4683    5.0546  -33.3000 N   0  0  0  0  0  0  0  0  0  0  0  0
   82.4925    6.2242  -33.9673 S   0  0  0  0  0  0  0  0  0  0  0  0
   83.9446    5.8765  -33.7630 O   0  0  0  0  0  0  0  0  0  0  0  0
   82.2462    6.2322  -35.4703 O   0  0  0  0  0  0  0  0  0  0  0  0
   82.2070    7.8031  -33.3662 C   0  0  0  0  0  0  0  0  0  0  0  0
   82.7634    8.3255  -32.2177 C   0  0  0  0  0  0  0  0  0  0  0  0
   82.5251    9.6070  -31.7686 C   0  0  0  0  0  0  0  0  0  0  0  0
   81.6852   10.4173  -32.5033 C   0  0  0  0  0  0  0  0  0  0  0  0
   81.4364   11.6826  -32.0799 N   0  0  0  0  0  0  0  0  0  0  0  0
   80.6164   12.4964  -32.7827 C   0  0  0  0  0  0  0  0  0  0  0  0
   80.4044   13.6750  -32.3591 O   0  0  0  0  0  0  0  0  0  0  0  0
   79.9974   12.0873  -33.9534 C   0  0  0  0  0  0  0  0  0  0  0  0
   80.2517   10.7841  -34.3925 C   0  0  0  0  0  0  0  0  0  0  0  0
   81.0999    9.9469  -33.6625 C   0  0  0  0  0  0  0  0  0  0  0  0
   81.3657    8.6599  -34.0740 C   0  0  0  0  0  0  0  0  0  0  0  0
   80.3375    4.9680  -31.1103 C   0  0  0  0  0  0  0  0  0  0  0  0
   80.4902    4.8053  -29.8297 O   0  0  0  0  0  0  0  0  0  0  0  0
   79.0265    5.2195  -31.5286 N   0  0  0  0  0  0  0  0  0  0  0  0
   78.6012    5.4222  -32.8996 C   0  0  0  0  0  0  0  0  0  0  0  0
   78.6156    6.8572  -33.2699 C   0  0  0  0  0  0  0  0  0  0  0  0
   78.8826    7.6677  -32.3195 O   0  0  0  0  0  0  0  0  0  0  0  0
   78.3560    7.2825  -34.5609 O   0  0  0  0  0  0  0  0  0  0  0  0
   77.9512    5.3211  -30.5248 C   0  0  0  0  0  0  0  0  0  0  0  0
   77.3046    4.0408  -30.2430 C   0  0  0  0  0  0  0  0  0  0  0  0
   76.2462    3.3772  -30.7373 C   0  0  0  0  0  0  0  0  0  0  0  0
   75.9016    2.1846  -30.2388 C   0  0  0  0  0  0  0  0  0  0  0  0
   76.6468    1.6584  -29.2199 C   0  0  0  0  0  0  0  0  0  0  0  0
   77.9422    2.9031  -28.9072 S   0  0  0  0  0  0  0  0  0  0  0  0
  1  2  2  0
  2  3  1  0
  2  4  1  0
  4  5  1  0
  5  6  1  0
  6  7  1  0
  7  8  1  0
  8  9  1  0
  9 10  2  0
 10 11  1  0
 11 12  2  0
 12 13  1  0
 13 14  2  0
 14 15  1  0
 15 16  1  6
 16 17  1  0
 17 18  2  0
 17 19  2  0
 17 20  1  0
 20 21  2  0
 21 22  1  0
 22 23  2  0
 23 24  1  0
 24 25  1  0
 25 26  2  0
 25 27  1  0
 27 28  2  0
 28 29  1  0
 29 30  2  0
 15 31  1  0
 31 32  2  0
 31 33  1  0
 33 34  1  0
 34 35  1  0
 35 36  2  0
 35 37  1  0
 33 38  1  0
 38 39  1  0
 39 40  2  0
 40 41  1  0
 41 42  2  0
 42 43  1  0
 14  9  1  0
 30 20  1  0
 43 39  1  0
 29 23  1  0
M  CHG  2   3  -1  37  -1
M  END
>  <shape_align_shape_tanimoto>  (1) 
0.50409456645211403

>  <shape_align_color_tanimoto>  (1) 
0.015752391607674183

>  <metric>  (1) 
shape

>  <metric_score>  (1) 
0.504

>  <template_pid>  (1) 
6MA4

>  <template_shape_score>  (1) 
0.504

>  <template_color_score>  (1) 
0.016

>  <template_combo_score>  (1) 
0.260

$$$$
6MA4_color_pose
     RDKit          3D

 43 46  0  0  0  0  0  0  0  0999 V2000
   80.3190    7.8874  -27.6405 O   0  0  0  0  0  0  0  0  0  0  0  0
   80.6875    8.9422  -28.1919 C   0  0  0  0  0  0  0  0  0  0  0  0
   79.7993   10.0264  -28.1041 O   0  0  0  0  0  0  0  0  0  0  0  0
   81.9395    9.1663  -28.9156 C   0  0  0  0  0  0  0  0  0  0  0  0
   82.8244    7.9633  -29.0384 C   0  0  0  0  0  0  0  0  0  0  0  0
   82.1349    6.8803  -29.7936 C   0  0  0  0  0  0  0  0  0  0  0  0
   82.9790    5.6440  -29.9502 C   0  0  0  0  0  0  0  0  0  0  0  0
   82.2300    4.6781  -30.6662 O   0  0  0  0  0  0  0  0  0  0  0  0
   82.8077    3.4118  -30.9297 C   0  0  0  0  0  0  0  0  0  0  0  0
   84.1080    3.1486  -30.4774 C   0  0  0  0  0  0  0  0  0  0  0  0
   84.7167    1.9329  -30.7032 C   0  0  0  0  0  0  0  0  0  0  0  0
   84.0250    0.9670  -31.3865 C   0  0  0  0  0  0  0  0  0  0  0  0
   82.7470    1.2196  -31.8336 C   0  0  0  0  0  0  0  0  0  0  0  0
   82.1159    2.4535  -31.6108 C   0  0  0  0  0  0  0  0  0  0  0  0
   80.7699    2.6004  -32.1874 C   0  0  1  0  0  0  0  0  0  0  0  0
   80.7773    2.6579  -33.6057 N   0  0  0  0  0  0  0  0  0  0  0  0
   80.0236    3.7562  -34.5294 S   0  0  0  0  0  0  0  0  0  0  0  0
   78.5289    3.8184  -34.4207 O   0  0  0  0  0  0  0  0  0  0  0  0
   80.3427    3.5024  -36.0079 O   0  0  0  0  0  0  0  0  0  0  0  0
   80.5945    5.3770  -34.2328 C   0  0  0  0  0  0  0  0  0  0  0  0
   81.7527    5.8663  -34.8210 C   0  0  0  0  0  0  0  0  0  0  0  0
   82.0830    7.1766  -34.5482 C   0  0  0  0  0  0  0  0  0  0  0  0
   81.3485    8.0065  -33.7463 C   0  0  0  0  0  0  0  0  0  0  0  0
   81.6747    9.2884  -33.4909 N   0  0  0  0  0  0  0  0  0  0  0  0
   80.9137   10.0609  -32.7015 C   0  0  0  0  0  0  0  0  0  0  0  0
   81.2728   11.2677  -32.4958 O   0  0  0  0  0  0  0  0  0  0  0  0
   79.7442    9.5818  -32.1016 C   0  0  0  0  0  0  0  0  0  0  0  0
   79.3819    8.2715  -32.3431 C   0  0  0  0  0  0  0  0  0  0  0  0
   80.1972    7.5210  -33.1605 C   0  0  0  0  0  0  0  0  0  0  0  0
   79.8460    6.2312  -33.4110 C   0  0  0  0  0  0  0  0  0  0  0  0
   79.8883    1.4335  -31.7384 C   0  0  0  0  0  0  0  0  0  0  0  0
   79.4691    0.6780  -32.6783 O   0  0  0  0  0  0  0  0  0  0  0  0
   79.5613    1.2192  -30.3801 N   0  0  0  0  0  0  0  0  0  0  0  0
   80.0209    2.0223  -29.2734 C   0  0  0  0  0  0  0  0  0  0  0  0
   81.2426    1.4776  -28.6477 C   0  0  0  0  0  0  0  0  0  0  0  0
   81.7142    0.3361  -28.9654 O   0  0  0  0  0  0  0  0  0  0  0  0
   81.8813    2.2327  -27.6959 O   0  0  0  0  0  0  0  0  0  0  0  0
   78.6918    0.1022  -30.0739 C   0  0  0  0  0  0  0  0  0  0  0  0
   77.3000    0.4605  -30.0879 C   0  0  0  0  0  0  0  0  0  0  0  0
   76.4420    0.9575  -29.0500 C   0  0  0  0  0  0  0  0  0  0  0  0
   75.1912    1.1949  -29.3518 C   0  0  0  0  0  0  0  0  0  0  0  0
   74.6958    0.9823  -30.6136 C   0  0  0  0  0  0  0  0  0  0  0  0
   76.1690    0.3553  -31.5529 S   0  0  0  0  0  0  0  0  0  0  0  0
  1  2  2  0
  2  3  1  0
  2  4  1  0
  4  5  1  0
  5  6  1  0
  6  7  1  0
  7  8  1  0
  8  9  1  0
  9 10  2  0
 10 11  1  0
 11 12  2  0
 12 13  1  0
 13 14  2  0
 14 15  1  0
 15 16  1  6
 16 17  1  0
 17 18  2  0
 17 19  2  0
 17 20  1  0
 20 21  2  0
 21 22  1  0
 22 23  2  0
 23 24  1  0
 24 25  1  0
 25 26  2  0
 25 27  1  0
 27 28  2  0
 28 29  1  0
 29 30  2  0
 15 31  1  0
 31 32  2  0
 31 33  1  0
 33 34  1  0
 34 35  1  0
 35 36  2  0
 35 37  1  0
 33 38  1  0
 38 39  1  0
 39 40  2  0
 40 41  1  0
 41 42  2  0
 42 43  1  0
 14  9  1  0
 30 20  1  0
 43 39  1  0
 29 23  1  0
M  CHG  2   3  -1  37  -1
M  END
>  <shape_align_shape_tanimoto>  (2) 
0.34787124741339309

>  <shape_align_color_tanimoto>  (2) 
0.10234384528173585

>  <metric>  (2) 
color

>  <metric_score>  (2) 
0.102

>  <template_pid>  (2) 
6MA4

>  <template_shape_score>  (2) 
0.348

>  <template_color_score>  (2) 
0.102

>  <template_combo_score>  (2) 
0.225

$$$$
6MA4_combo_pose
     RDKit          3D

 43 46  0  0  0  0  0  0  0  0999 V2000
   77.1065    7.3002  -38.8332 O   0  0  0  0  0  0  0  0  0  0  0  0
   78.3501    7.4254  -38.9011 C   0  0  0  0  0  0  0  0  0  0  0  0
   78.9028    8.3521  -39.7640 O   0  0  0  0  0  0  0  0  0  0  0  0
   79.2350    6.5891  -38.0652 C   0  0  0  0  0  0  0  0  0  0  0  0
   79.3167    7.1108  -36.6282 C   0  0  0  0  0  0  0  0  0  0  0  0
   77.9843    7.1289  -35.9688 C   0  0  0  0  0  0  0  0  0  0  0  0
   77.9451    7.6049  -34.5537 C   0  0  0  0  0  0  0  0  0  0  0  0
   78.7437    6.8260  -33.7294 O   0  0  0  0  0  0  0  0  0  0  0  0
   78.8503    6.9404  -32.3667 C   0  0  0  0  0  0  0  0  0  0  0  0
   78.1414    7.8621  -31.6321 C   0  0  0  0  0  0  0  0  0  0  0  0
   78.3165    7.8737  -30.2476 C   0  0  0  0  0  0  0  0  0  0  0  0
   79.1806    6.9818  -29.6283 C   0  0  0  0  0  0  0  0  0  0  0  0
   79.9042    6.0467  -30.3633 C   0  0  0  0  0  0  0  0  0  0  0  0
   79.7150    6.0579  -31.7256 C   0  0  0  0  0  0  0  0  0  0  0  0
   80.6073    5.1347  -32.6078 C   0  0  1  0  0  0  0  0  0  0  0  0
   81.9713    5.3959  -32.1742 N   0  0  0  0  0  0  0  0  0  0  0  0
   82.8623    6.5303  -33.0754 S   0  0  0  0  0  0  0  0  0  0  0  0
   84.2440    6.5925  -32.4475 O   0  0  0  0  0  0  0  0  0  0  0  0
   83.1031    6.0712  -34.4947 O   0  0  0  0  0  0  0  0  0  0  0  0
   82.2088    8.1454  -33.0421 C   0  0  0  0  0  0  0  0  0  0  0  0
   82.4547    8.8689  -31.8647 C   0  0  0  0  0  0  0  0  0  0  0  0
   82.0301   10.1598  -31.6850 C   0  0  0  0  0  0  0  0  0  0  0  0
   81.3339   10.7729  -32.7006 C   0  0  0  0  0  0  0  0  0  0  0  0
   80.9241   12.0408  -32.5146 N   0  0  0  0  0  0  0  0  0  0  0  0
   80.2440   12.6683  -33.4902 C   0  0  0  0  0  0  0  0  0  0  0  0
   79.8590   13.8524  -33.3213 O   0  0  0  0  0  0  0  0  0  0  0  0
   79.9632   12.0298  -34.6740 C   0  0  0  0  0  0  0  0  0  0  0  0
   80.3898   10.7346  -34.8459 C   0  0  0  0  0  0  0  0  0  0  0  0
   81.0935   10.0596  -33.8577 C   0  0  0  0  0  0  0  0  0  0  0  0
   81.5201    8.7552  -34.0441 C   0  0  0  0  0  0  0  0  0  0  0  0
   80.2332    3.7926  -32.2423 C   0  0  0  0  0  0  0  0  0  0  0  0
   79.0588    3.4369  -32.7721 O   0  0  0  0  0  0  0  0  0  0  0  0
   80.7695    2.7705  -31.4773 N   0  0  0  0  0  0  0  0  0  0  0  0
   79.8688    1.5467  -31.4494 C   0  0  0  0  0  0  0  0  0  0  0  0
   80.2049    0.6720  -32.5787 C   0  0  0  0  0  0  0  0  0  0  0  0
   81.0825    1.0208  -33.4429 O   0  0  0  0  0  0  0  0  0  0  0  0
   79.5429   -0.5427  -32.6805 O   0  0  0  0  0  0  0  0  0  0  0  0
   81.9578    2.6117  -30.7345 C   0  0  0  0  0  0  0  0  0  0  0  0
   83.1323    2.0483  -31.2489 C   0  0  0  0  0  0  0  0  0  0  0  0
   84.3154    2.3940  -31.8596 C   0  0  0  0  0  0  0  0  0  0  0  0
   85.1972    1.4626  -32.1956 C   0  0  0  0  0  0  0  0  0  0  0  0
   84.9413    0.1382  -31.9377 C   0  0  0  0  0  0  0  0  0  0  0  0
   83.3116    0.1573  -31.1454 S   0  0  0  0  0  0  0  0  0  0  0  0
  1  2  2  0
  2  3  1  0
  2  4  1  0
  4  5  1  0
  5  6  1  0
  6  7  1  0
  7  8  1  0
  8  9  1  0
  9 10  2  0
 10 11  1  0
 11 12  2  0
 12 13  1  0
 13 14  2  0
 14 15  1  0
 15 16  1  1
 16 17  1  0
 17 18  2  0
 17 19  2  0
 17 20  1  0
 20 21  2  0
 21 22  1  0
 22 23  2  0
 23 24  1  0
 24 25  1  0
 25 26  2  0
 25 27  1  0
 27 28  2  0
 28 29  1  0
 29 30  2  0
 15 31  1  0
 31 32  2  0
 31 33  1  0
 33 34  1  0
 34 35  1  0
 35 36  2  0
 35 37  1  0
 33 38  1  0
 38 39  1  0
 39 40  2  0
 40 41  1  0
 41 42  2  0
 42 43  1  0
 14  9  1  0
 30 20  1  0
 43 39  1  0
 29 23  1  0
M  CHG  2   3  -1  37  -1
M  END
>  <shape_align_shape_tanimoto>  (3) 
0.48350423334333315

>  <shape_align_color_tanimoto>  (3) 
0.050781568199191267

>  <metric>  (3) 
combo

>  <metric_score>  (3) 
0.267

>  <template_pid>  (3) 
6MA4

>  <template_shape_score>  (3) 
0.484

>  <template_color_score>  (3) 
0.051

>  <template_combo_score>  (3) 
0.267

$$$$
