5ZKU_shape_pose
     RDKit          3D

 22 24  0  0  0  0  0  0  0  0999 V2000
    4.0665    9.7374   -1.0233 O   0  0  0  0  0  0  0  0  0  0  0  0
    3.8476    8.3920   -1.3234 C   0  0  0  0  0  0  0  0  0  0  0  0
    2.7741    7.7940   -0.4109 C   0  0  1  0  0  0  0  0  0  0  0  0
    2.5623    6.4764   -0.7074 O   0  0  0  0  0  0  0  0  0  0  0  0
    2.4657    5.7479    0.4588 C   0  0  2  0  0  0  0  0  0  0  0  0
    3.6350    4.7774    0.4680 C   0  0  0  0  0  0  0  0  0  0  0  0
    3.4914    4.0189   -0.7088 O   0  0  0  0  0  0  0  0  0  0  0  0
    2.3420    3.2673   -0.6707 C   0  0  2  0  0  0  0  0  0  0  0  0
    2.7773    1.8409   -0.2998 C   0  0  0  0  0  0  0  0  0  0  0  0
    3.6616    1.3441   -1.2554 O   0  0  0  0  0  0  0  0  0  0  0  0
    1.7815    3.1262   -1.9548 O   0  0  0  0  0  0  0  0  0  0  0  0
    0.4612    2.7645   -1.7625 C   0  0  2  0  0  0  0  0  0  0  0  0
   -0.3598    3.2250   -2.9726 C   0  0  0  0  0  0  0  0  0  0  0  0
   -1.6942    2.8804   -2.8190 O   0  0  0  0  0  0  0  0  0  0  0  0
   -0.0233    3.4623   -0.5360 C   0  0  1  0  0  0  0  0  0  0  0  0
   -0.9065    2.7020    0.2242 O   0  0  0  0  0  0  0  0  0  0  0  0
    1.2632    3.7588    0.2118 C   0  0  2  0  0  0  0  0  0  0  0  0
    1.2570    5.1034    0.4799 O   0  0  0  0  0  0  0  0  0  0  0  0
    2.5041    6.7093    1.6271 C   0  0  1  0  0  0  0  0  0  0  0  0
    3.1452    6.1859    2.7414 O   0  0  0  0  0  0  0  0  0  0  0  0
    3.1951    7.9004    1.0279 C   0  0  2  0  0  0  0  0  0  0  0  0
    2.6507    9.0767    1.5911 O   0  0  0  0  0  0  0  0  0  0  0  0
  1  2  1  0
  3  2  1  6
  3  4  1  0
  4  5  1  0
  5  6  1  1
  6  7  1  0
  7  8  1  0
  8  9  1  1
  9 10  1  0
  8 11  1  0
 11 12  1  0
 12 13  1  6
 13 14  1  0
 12 15  1  0
 15 16  1  1
 15 17  1  0
 17 18  1  6
  5 19  1  0
 19 20  1  1
 19 21  1  0
 21 22  1  1
 21  3  1  0
 18  5  1  0
 17  8  1  0
M  END
>  <shape_align_shape_tanimoto>  (1) 
0.21138652557986229

>  <shape_align_color_tanimoto>  (1) 
0.01163878734180738

>  <metric>  (1) 
shape

>  <metric_score>  (1) 
0.211

>  <template_pid>  (1) 
5ZKU

>  <template_shape_score>  (1) 
0.211

>  <template_color_score>  (1) 
0.012

>  <template_combo_score>  (1) 
0.112

$$$$
5ZKU_color_pose
     RDKit          3D

 22 24  0  0  0  0  0  0  0  0999 V2000
   -5.8312   11.2969   -2.2824 O   0  0  0  0  0  0  0  0  0  0  0  0
   -4.7875   10.5562   -1.7262 C   0  0  0  0  0  0  0  0  0  0  0  0
   -3.7233   11.4827   -1.1904 C   0  0  1  0  0  0  0  0  0  0  0  0
   -3.1885   12.2942   -2.1909 O   0  0  0  0  0  0  0  0  0  0  0  0
   -2.4426   13.1663   -1.3888 C   0  0  2  0  0  0  0  0  0  0  0  0
   -1.6702   14.1735   -2.1517 C   0  0  0  0  0  0  0  0  0  0  0  0
   -0.7736   14.8055   -1.3309 O   0  0  0  0  0  0  0  0  0  0  0  0
    0.0447   13.9869   -0.5945 C   0  0  2  0  0  0  0  0  0  0  0  0
    0.7649   14.8539    0.4198 C   0  0  0  0  0  0  0  0  0  0  0  0
    1.6295   14.1553    1.2362 O   0  0  0  0  0  0  0  0  0  0  0  0
    1.0156   13.3779   -1.3818 O   0  0  0  0  0  0  0  0  0  0  0  0
    1.4802   12.2616   -0.7177 C   0  0  2  0  0  0  0  0  0  0  0  0
    1.8189   11.2042   -1.7663 C   0  0  0  0  0  0  0  0  0  0  0  0
    2.7922   11.6680   -2.6376 O   0  0  0  0  0  0  0  0  0  0  0  0
    0.3837   11.7439    0.1618 C   0  0  1  0  0  0  0  0  0  0  0  0
    0.7743   11.4879    1.4724 O   0  0  0  0  0  0  0  0  0  0  0  0
   -0.6455   12.8545    0.0890 C   0  0  2  0  0  0  0  0  0  0  0  0
   -1.7323   12.3477   -0.5577 O   0  0  0  0  0  0  0  0  0  0  0  0
   -3.5915   13.7697   -0.5913 C   0  0  1  0  0  0  0  0  0  0  0  0
   -4.4410   14.4809   -1.4290 O   0  0  0  0  0  0  0  0  0  0  0  0
   -4.2949   12.4673   -0.1849 C   0  0  2  0  0  0  0  0  0  0  0  0
   -3.9047   12.2000    1.1131 O   0  0  0  0  0  0  0  0  0  0  0  0
  1  2  1  0
  3  2  1  6
  3  4  1  0
  4  5  1  0
  5  6  1  6
  6  7  1  0
  7  8  1  0
  8  9  1  1
  9 10  1  0
  8 11  1  0
 11 12  1  0
 12 13  1  6
 13 14  1  0
 12 15  1  0
 15 16  1  1
 15 17  1  0
 17 18  1  6
  5 19  1  0
 19 20  1  6
 19 21  1  0
 21 22  1  1
 21  3  1  0
 18  5  1  0
 17  8  1  0
M  END
>  <shape_align_shape_tanimoto>  (2) 
0.18388627564339391

>  <shape_align_color_tanimoto>  (2) 
0.058397631133703658

>  <metric>  (2) 
color

>  <metric_score>  (2) 
0.058

>  <template_pid>  (2) 
5ZKU

>  <template_shape_score>  (2) 
0.184

>  <template_color_score>  (2) 
0.058

>  <template_combo_score>  (2) 
0.121

$$$$
5ZKU_combo_pose
     RDKit          3D

 22 24  0  0  0  0  0  0  0  0999 V2000
    0.5284    3.1337   -0.2218 O   0  0  0  0  0  0  0  0  0  0  0  0
    0.7103    4.3729   -0.8723 C   0  0  0  0  0  0  0  0  0  0  0  0
    2.1310    4.8226   -0.6179 C   0  0  1  0  0  0  0  0  0  0  0  0
    2.4698    6.0165   -1.1853 O   0  0  0  0  0  0  0  0  0  0  0  0
    2.8920    6.8995   -0.1987 C   0  0  2  0  0  0  0  0  0  0  0  0
    1.6966    7.6288    0.3199 C   0  0  0  0  0  0  0  0  0  0  0  0
    2.1447    8.4153    1.3824 O   0  0  0  0  0  0  0  0  0  0  0  0
    2.9995    9.3844    0.9082 C   0  0  2  0  0  0  0  0  0  0  0  0
    3.7179    9.9511    2.1365 C   0  0  0  0  0  0  0  0  0  0  0  0
    4.6206   10.9485    1.8059 O   0  0  0  0  0  0  0  0  0  0  0  0
    2.2408   10.4297    0.3820 O   0  0  0  0  0  0  0  0  0  0  0  0
    3.0062   11.0988   -0.5424 C   0  0  2  0  0  0  0  0  0  0  0  0
    2.1066   11.8135   -1.5280 C   0  0  0  0  0  0  0  0  0  0  0  0
    1.2807   12.7403   -0.8858 O   0  0  0  0  0  0  0  0  0  0  0  0
    3.7197    9.9931   -1.2633 C   0  0  1  0  0  0  0  0  0  0  0  0
    4.9363   10.3725   -1.8134 O   0  0  0  0  0  0  0  0  0  0  0  0
    3.9371    8.9749   -0.1391 C   0  0  2  0  0  0  0  0  0  0  0  0
    3.8394    7.7551   -0.6885 O   0  0  0  0  0  0  0  0  0  0  0  0
    3.5113    5.9826    0.8233 C   0  0  1  0  0  0  0  0  0  0  0  0
    3.7469    6.5463    2.0445 O   0  0  0  0  0  0  0  0  0  0  0  0
    2.4373    4.8868    0.8505 C   0  0  2  0  0  0  0  0  0  0  0  0
    2.9133    3.6907    1.3523 O   0  0  0  0  0  0  0  0  0  0  0  0
  1  2  1  0
  3  2  1  1
  3  4  1  0
  4  5  1  0
  5  6  1  1
  6  7  1  0
  7  8  1  0
  8  9  1  1
  9 10  1  0
  8 11  1  0
 11 12  1  0
 12 13  1  6
 13 14  1  0
 12 15  1  0
 15 16  1  1
 15 17  1  0
 17 18  1  6
  5 19  1  0
 19 20  1  1
 19 21  1  0
 21 22  1  6
 21  3  1  0
 18  5  1  0
 17  8  1  0
M  END
>  <shape_align_shape_tanimoto>  (3) 
0.19887472261112116

>  <shape_align_color_tanimoto>  (3) 
0.047217350983099329

>  <metric>  (3) 
combo

>  <metric_score>  (3) 
0.123

>  <template_pid>  (3) 
5ZKU

>  <template_shape_score>  (3) 
0.199

>  <template_color_score>  (3) 
0.047

>  <template_combo_score>  (3) 
0.123

$$$$
