3KCE_shape_pose
     RDKit          3D

 13 14  0  0  0  0  0  0  0  0999 V2000
  -14.6592   17.3502  -22.4142 C   0  0  0  0  0  0  0  0  0  0  0  0
  -13.7435   17.1405  -21.2823 C   0  0  0  0  0  0  0  0  0  0  0  0
  -12.6834   17.9691  -20.9760 C   0  0  0  0  0  0  0  0  0  0  0  0
  -11.8454   17.7243  -19.8905 C   0  0  0  0  0  0  0  0  0  0  0  0
  -12.0400   16.6305  -19.0639 C   0  0  0  0  0  0  0  0  0  0  0  0
  -11.4178   16.1482  -17.9762 N   0  0  0  0  0  0  0  0  0  0  0  0
  -12.0328   15.0326  -17.5586 C   0  0  0  0  0  0  0  0  0  0  0  0
  -11.6586   14.2153  -16.4101 C   0  0  0  0  0  0  0  0  0  0  0  0
  -10.6706   14.5354  -15.7009 O   0  0  0  0  0  0  0  0  0  0  0  0
  -12.3915   13.0797  -16.0943 O   0  0  0  0  0  0  0  0  0  0  0  0
  -13.0881   14.7928  -18.4118 C   0  0  0  0  0  0  0  0  0  0  0  0
  -13.1083   15.8024  -19.3789 C   0  0  0  0  0  0  0  0  0  0  0  0
  -13.9402   16.0420  -20.4534 C   0  0  0  0  0  0  0  0  0  0  0  0
  1  2  1  0
  2  3  2  0
  3  4  1  0
  4  5  2  0
  5  6  1  0
  6  7  1  0
  7  8  1  0
  8  9  2  0
  8 10  1  0
  7 11  2  0
 11 12  1  0
 12 13  2  0
 13  2  1  0
 12  5  1  0
M  CHG  1  10  -1
M  END
>  <shape_align_shape_tanimoto>  (1) 
0.74852833046054423

>  <shape_align_color_tanimoto>  (1) 
0.1294669656269534

>  <metric>  (1) 
shape

>  <metric_score>  (1) 
0.749

>  <template_pid>  (1) 
3KCE

>  <template_shape_score>  (1) 
0.749

>  <template_color_score>  (1) 
0.129

>  <template_combo_score>  (1) 
0.439

$$$$
3KCE_color_pose
     RDKit          3D

 13 14  0  0  0  0  0  0  0  0999 V2000
  -13.1036   19.0238  -22.0932 C   0  0  0  0  0  0  0  0  0  0  0  0
  -13.1167   17.8353  -21.1704 C   0  0  0  0  0  0  0  0  0  0  0  0
  -13.9756   16.7769  -21.3858 C   0  0  0  0  0  0  0  0  0  0  0  0
  -14.0260   15.6648  -20.5690 C   0  0  0  0  0  0  0  0  0  0  0  0
  -13.1793   15.5988  -19.4805 C   0  0  0  0  0  0  0  0  0  0  0  0
  -13.0079   14.6638  -18.5321 N   0  0  0  0  0  0  0  0  0  0  0  0
  -12.0476   15.0870  -17.6909 C   0  0  0  0  0  0  0  0  0  0  0  0
  -11.5620   14.3435  -16.5092 C   0  0  0  0  0  0  0  0  0  0  0  0
  -12.0786   13.2283  -16.2606 O   0  0  0  0  0  0  0  0  0  0  0  0
  -10.5587   14.9173  -15.7341 O   0  0  0  0  0  0  0  0  0  0  0  0
  -11.6074   16.3199  -18.1258 C   0  0  0  0  0  0  0  0  0  0  0  0
  -12.3281   16.6541  -19.2721 C   0  0  0  0  0  0  0  0  0  0  0  0
  -12.2759   17.7689  -20.0887 C   0  0  0  0  0  0  0  0  0  0  0  0
  1  2  1  0
  2  3  2  0
  3  4  1  0
  4  5  2  0
  5  6  1  0
  6  7  1  0
  7  8  1  0
  8  9  2  0
  8 10  1  0
  7 11  2  0
 11 12  1  0
 12 13  2  0
 13  2  1  0
 12  5  1  0
M  CHG  1  10  -1
M  END
>  <shape_align_shape_tanimoto>  (2) 
0.68426792552800797

>  <shape_align_color_tanimoto>  (2) 
0.14755604393806257

>  <metric>  (2) 
color

>  <metric_score>  (2) 
0.148

>  <template_pid>  (2) 
3KCE

>  <template_shape_score>  (2) 
0.684

>  <template_color_score>  (2) 
0.148

>  <template_combo_score>  (2) 
0.416

$$$$
3KCE_combo_pose
     RDKit          3D

 13 14  0  0  0  0  0  0  0  0999 V2000
  -14.6877   17.3536  -22.5510 C   0  0  0  0  0  0  0  0  0  0  0  0
  -13.7848   17.1551  -21.3698 C   0  0  0  0  0  0  0  0  0  0  0  0
  -12.8131   18.0901  -21.0535 C   0  0  0  0  0  0  0  0  0  0  0  0
  -12.0167   17.8430  -19.9516 C   0  0  0  0  0  0  0  0  0  0  0  0
  -12.1479   16.7178  -19.1637 C   0  0  0  0  0  0  0  0  0  0  0  0
  -11.4834   16.2992  -18.0678 N   0  0  0  0  0  0  0  0  0  0  0  0
  -12.0110   15.1220  -17.6827 C   0  0  0  0  0  0  0  0  0  0  0  0
  -11.5855   14.3216  -16.5382 C   0  0  0  0  0  0  0  0  0  0  0  0
  -12.1188   13.2247  -16.2264 O   0  0  0  0  0  0  0  0  0  0  0  0
  -10.5441   14.7626  -15.7328 O   0  0  0  0  0  0  0  0  0  0  0  0
  -13.0281   14.7975  -18.5577 C   0  0  0  0  0  0  0  0  0  0  0  0
  -13.1288   15.8109  -19.5136 C   0  0  0  0  0  0  0  0  0  0  0  0
  -13.9583   16.0000  -20.6045 C   0  0  0  0  0  0  0  0  0  0  0  0
  1  2  1  0
  2  3  2  0
  3  4  1  0
  4  5  2  0
  5  6  1  0
  6  7  1  0
  7  8  1  0
  8  9  2  0
  8 10  1  0
  7 11  2  0
 11 12  1  0
 12 13  2  0
 13  2  1  0
 12  5  1  0
M  CHG  1  10  -1
M  END
>  <shape_align_shape_tanimoto>  (3) 
0.74169962539628087

>  <shape_align_color_tanimoto>  (3) 
0.13909799006547302

>  <metric>  (3) 
combo

>  <metric_score>  (3) 
0.440

>  <template_pid>  (3) 
3KCE

>  <template_shape_score>  (3) 
0.742

>  <template_color_score>  (3) 
0.139

>  <template_combo_score>  (3) 
0.440

$$$$
