2QNB_shape_pose
     RDKit          3D

 23 24  0  0  0  0  0  0  0  0999 V2000
   33.8687   24.6645   29.7304 O   0  0  0  0  0  0  0  0  0  0  0  0
   34.8050   23.8194   29.4936 C   0  0  0  0  0  0  0  0  0  0  0  0
   35.7151   24.2470   30.4528 N   0  0  0  0  0  0  0  0  0  0  0  0
   36.9278   24.0560   30.9681 C   0  0  0  0  0  0  0  0  0  0  0  0
   37.5612   23.1246   30.4324 O   0  0  0  0  0  0  0  0  0  0  0  0
   37.4385   24.8871   32.0603 C   0  0  0  0  0  0  0  0  0  0  0  0
   38.7918   24.8117   32.2699 C   0  0  0  0  0  0  0  0  0  0  0  0
   39.3691   25.5442   33.2776 C   0  0  0  0  0  0  0  0  0  0  0  0
   38.6088   26.3621   34.0910 C   0  0  0  0  0  0  0  0  0  0  0  0
   37.2405   26.4293   33.8679 C   0  0  0  0  0  0  0  0  0  0  0  0
   36.6840   25.6843   32.8499 C   0  0  0  0  0  0  0  0  0  0  0  0
   34.5910   22.9245   28.5122 N   0  0  0  0  0  0  0  0  0  0  0  0
   33.3652   22.8798   27.7241 C   0  0  2  0  0  0  0  0  0  0  0  0
   32.7374   21.7275   28.0164 O   0  0  0  0  0  0  0  0  0  0  0  0
   32.4382   20.7956   27.1063 C   0  0  2  0  0  0  0  0  0  0  0  0
   33.2737   19.5515   27.4673 C   0  0  0  0  0  0  0  0  0  0  0  0
   32.9659   19.1032   28.7286 O   0  0  0  0  0  0  0  0  0  0  0  0
   32.7446   21.0636   25.6690 C   0  0  1  0  0  0  0  0  0  0  0  0
   31.8437   20.3993   24.8575 O   0  0  0  0  0  0  0  0  0  0  0  0
   32.5688   22.5587   25.4506 C   0  0  2  0  0  0  0  0  0  0  0  0
   32.6186   22.8989   24.1069 O   0  0  0  0  0  0  0  0  0  0  0  0
   33.6072   23.2180   26.2890 C   0  0  1  0  0  0  0  0  0  0  0  0
   33.4934   24.5939   26.1280 O   0  0  0  0  0  0  0  0  0  0  0  0
  1  2  2  0
  2  3  1  0
  3  4  1  0
  4  5  2  0
  4  6  1  0
  6  7  2  0
  7  8  1  0
  8  9  2  0
  9 10  1  0
 10 11  2  0
  2 12  1  0
 13 12  1  1
 13 14  1  0
 14 15  1  0
 15 16  1  1
 16 17  1  0
 15 18  1  0
 18 19  1  6
 18 20  1  0
 20 21  1  6
 20 22  1  0
 22 23  1  1
 11  6  1  0
 22 13  1  0
M  END
>  <shape_align_shape_tanimoto>  (1) 
0.87647830059106902

>  <shape_align_color_tanimoto>  (1) 
0.054353483947015897

>  <metric>  (1) 
shape

>  <metric_score>  (1) 
0.876

>  <template_pid>  (1) 
2QNB

>  <template_shape_score>  (1) 
0.876

>  <template_color_score>  (1) 
0.054

>  <template_combo_score>  (1) 
0.465

$$$$
2QNB_color_pose
     RDKit          3D

 23 24  0  0  0  0  0  0  0  0999 V2000
   35.2616   22.8860   29.2456 O   0  0  0  0  0  0  0  0  0  0  0  0
   34.7744   23.8030   29.8189 C   0  0  0  0  0  0  0  0  0  0  0  0
   35.0523   24.7379   30.8171 N   0  0  0  0  0  0  0  0  0  0  0  0
   36.6813   24.2857   31.0144 C   0  0  0  0  0  0  0  0  0  0  0  0
   37.0938   23.4467   30.2908 O   0  0  0  0  0  0  0  0  0  0  0  0
   37.3617   24.9927   32.0518 C   0  0  0  0  0  0  0  0  0  0  0  0
   38.7625   25.0510   31.9014 C   0  0  0  0  0  0  0  0  0  0  0  0
   39.5538   25.6588   32.8441 C   0  0  0  0  0  0  0  0  0  0  0  0
   39.0049   26.2313   33.9639 C   0  0  0  0  0  0  0  0  0  0  0  0
   37.6324   26.1889   34.1384 C   0  0  0  0  0  0  0  0  0  0  0  0
   36.8259   25.5657   33.1702 C   0  0  0  0  0  0  0  0  0  0  0  0
   33.3752   24.1363   29.3535 N   0  0  0  0  0  0  0  0  0  0  0  0
   32.7560   23.3562   28.3327 C   0  0  2  0  0  0  0  0  0  0  0  0
   33.5457   22.2025   28.0423 O   0  0  0  0  0  0  0  0  0  0  0  0
   32.9204   21.6647   26.9201 C   0  0  2  0  0  0  0  0  0  0  0  0
   32.9704   20.1838   26.8037 C   0  0  0  0  0  0  0  0  0  0  0  0
   32.3045   19.6028   27.9069 O   0  0  0  0  0  0  0  0  0  0  0  0
   33.5903   22.4020   25.7536 C   0  0  1  0  0  0  0  0  0  0  0  0
   33.2722   21.8687   24.5187 O   0  0  0  0  0  0  0  0  0  0  0  0
   33.1746   23.8532   25.9060 C   0  0  2  0  0  0  0  0  0  0  0  0
   34.3678   24.5902   25.8380 O   0  0  0  0  0  0  0  0  0  0  0  0
   32.3696   24.1321   27.1406 C   0  0  1  0  0  0  0  0  0  0  0  0
   31.0087   24.1513   26.8390 O   0  0  0  0  0  0  0  0  0  0  0  0
  1  2  2  0
  2  3  1  0
  3  4  1  0
  4  5  2  0
  4  6  1  0
  6  7  2  0
  7  8  1  0
  8  9  2  0
  9 10  1  0
 10 11  2  0
  2 12  1  0
 13 12  1  1
 13 14  1  0
 14 15  1  0
 15 16  1  6
 16 17  1  0
 15 18  1  0
 18 19  1  6
 18 20  1  0
 20 21  1  1
 20 22  1  0
 22 23  1  6
 11  6  1  0
 22 13  1  0
M  END
>  <shape_align_shape_tanimoto>  (2) 
0.76705957479246378

>  <shape_align_color_tanimoto>  (2) 
0.087741539560013779

>  <metric>  (2) 
color

>  <metric_score>  (2) 
0.088

>  <template_pid>  (2) 
2QNB

>  <template_shape_score>  (2) 
0.767

>  <template_color_score>  (2) 
0.088

>  <template_combo_score>  (2) 
0.427

$$$$
2QNB_combo_pose
     RDKit          3D

 23 24  0  0  0  0  0  0  0  0999 V2000
   33.8687   24.6645   29.7304 O   0  0  0  0  0  0  0  0  0  0  0  0
   34.8050   23.8194   29.4936 C   0  0  0  0  0  0  0  0  0  0  0  0
   35.7151   24.2470   30.4528 N   0  0  0  0  0  0  0  0  0  0  0  0
   36.9278   24.0560   30.9681 C   0  0  0  0  0  0  0  0  0  0  0  0
   37.5612   23.1246   30.4324 O   0  0  0  0  0  0  0  0  0  0  0  0
   37.4385   24.8871   32.0603 C   0  0  0  0  0  0  0  0  0  0  0  0
   38.7918   24.8117   32.2699 C   0  0  0  0  0  0  0  0  0  0  0  0
   39.3691   25.5442   33.2776 C   0  0  0  0  0  0  0  0  0  0  0  0
   38.6088   26.3621   34.0910 C   0  0  0  0  0  0  0  0  0  0  0  0
   37.2405   26.4293   33.8679 C   0  0  0  0  0  0  0  0  0  0  0  0
   36.6840   25.6843   32.8499 C   0  0  0  0  0  0  0  0  0  0  0  0
   34.5910   22.9245   28.5122 N   0  0  0  0  0  0  0  0  0  0  0  0
   33.3652   22.8798   27.7241 C   0  0  2  0  0  0  0  0  0  0  0  0
   32.7374   21.7275   28.0164 O   0  0  0  0  0  0  0  0  0  0  0  0
   32.4382   20.7956   27.1063 C   0  0  2  0  0  0  0  0  0  0  0  0
   33.2737   19.5515   27.4673 C   0  0  0  0  0  0  0  0  0  0  0  0
   32.9659   19.1032   28.7286 O   0  0  0  0  0  0  0  0  0  0  0  0
   32.7446   21.0636   25.6690 C   0  0  1  0  0  0  0  0  0  0  0  0
   31.8437   20.3993   24.8575 O   0  0  0  0  0  0  0  0  0  0  0  0
   32.5688   22.5587   25.4506 C   0  0  2  0  0  0  0  0  0  0  0  0
   32.6186   22.8989   24.1069 O   0  0  0  0  0  0  0  0  0  0  0  0
   33.6072   23.2180   26.2890 C   0  0  1  0  0  0  0  0  0  0  0  0
   33.4934   24.5939   26.1280 O   0  0  0  0  0  0  0  0  0  0  0  0
  1  2  2  0
  2  3  1  0
  3  4  1  0
  4  5  2  0
  4  6  1  0
  6  7  2  0
  7  8  1  0
  8  9  2  0
  9 10  1  0
 10 11  2  0
  2 12  1  0
 13 12  1  1
 13 14  1  0
 14 15  1  0
 15 16  1  1
 16 17  1  0
 15 18  1  0
 18 19  1  6
 18 20  1  0
 20 21  1  6
 20 22  1  0
 22 23  1  1
 11  6  1  0
 22 13  1  0
M  END
>  <shape_align_shape_tanimoto>  (3) 
0.87647830059106902

>  <shape_align_color_tanimoto>  (3) 
0.054353483947015897

>  <metric>  (3) 
combo

>  <metric_score>  (3) 
0.465

>  <template_pid>  (3) 
2QNB

>  <template_shape_score>  (3) 
0.876

>  <template_color_score>  (3) 
0.054

>  <template_combo_score>  (3) 
0.465

$$$$
