1UZE_shape_pose
     RDKit          3D

 25 26  0  0  0  0  0  0  0  0999 V2000
   15.6313    8.8301   28.1016 C   0  0  0  0  0  0  0  0  0  0  0  0
   14.6796    8.1898   27.0697 C   0  0  2  0  0  0  0  0  0  0  0  0
   13.8516    7.2364   27.7438 N   0  0  0  0  0  0  0  0  0  0  0  0
   12.4706    7.3436   27.7194 C   0  0  1  0  0  0  0  0  0  0  0  0
   11.6562    8.4314   28.2143 C   0  0  0  0  0  0  0  0  0  0  0  0
   11.6665    8.8050   29.6519 C   0  0  0  0  0  0  0  0  0  0  0  0
   12.9002    9.2795   30.2715 C   0  0  0  0  0  0  0  0  0  0  0  0
   13.8223    8.5440   30.9649 C   0  0  0  0  0  0  0  0  0  0  0  0
   14.9605    9.1006   31.5320 C   0  0  0  0  0  0  0  0  0  0  0  0
   15.2146   10.4412   31.4187 C   0  0  0  0  0  0  0  0  0  0  0  0
   14.3033   11.2103   30.7250 C   0  0  0  0  0  0  0  0  0  0  0  0
   13.1733   10.6528   30.1629 C   0  0  0  0  0  0  0  0  0  0  0  0
   12.0396    7.0930   26.2701 C   0  0  0  0  0  0  0  0  0  0  0  0
   12.8445    7.2815   25.3266 O   0  0  0  0  0  0  0  0  0  0  0  0
   10.7373    6.6515   26.0121 O   0  0  0  0  0  0  0  0  0  0  0  0
   15.5701    7.5531   26.0747 C   0  0  0  0  0  0  0  0  0  0  0  0
   15.6427    6.2858   26.1154 O   0  0  0  0  0  0  0  0  0  0  0  0
   16.3399    8.1978   25.0943 N   0  0  0  0  0  0  0  0  0  0  0  0
   17.2063    7.3963   24.1851 C   0  0  0  0  0  0  0  0  0  0  0  0
   16.8902    8.0708   22.8972 C   0  0  0  0  0  0  0  0  0  0  0  0
   16.5046    9.3146   23.1466 C   0  0  0  0  0  0  0  0  0  0  0  0
   16.5449    9.5418   24.6649 C   0  0  1  0  0  0  0  0  0  0  0  0
   15.5578   10.5459   25.0343 C   0  0  0  0  0  0  0  0  0  0  0  0
   15.5650   11.2710   26.0550 O   0  0  0  0  0  0  0  0  0  0  0  0
   14.4679   10.7382   24.1617 O   0  0  0  0  0  0  0  0  0  0  0  0
  2  1  1  1
  2  3  1  0
  3  4  1  0
  4  5  1  6
  5  6  1  0
  6  7  1  0
  7  8  2  0
  8  9  1  0
  9 10  2  0
 10 11  1  0
 11 12  2  0
  4 13  1  0
 13 14  2  0
 13 15  1  0
  2 16  1  0
 16 17  2  0
 16 18  1  0
 18 19  1  0
 19 20  1  0
 20 21  2  0
 21 22  1  0
 22 23  1  1
 23 24  2  0
 23 25  1  0
 12  7  1  0
 22 18  1  0
M  CHG  3   3   1  15  -1  25  -1
M  END
>  <shape_align_shape_tanimoto>  (1) 
0.69058756037646118

>  <shape_align_color_tanimoto>  (1) 
0.010331119598927362

>  <metric>  (1) 
shape

>  <metric_score>  (1) 
0.691

>  <template_pid>  (1) 
1UZE

>  <template_shape_score>  (1) 
0.691

>  <template_color_score>  (1) 
0.010

>  <template_combo_score>  (1) 
0.350

$$$$
1UZE_color_pose
     RDKit          3D

 25 26  0  0  0  0  0  0  0  0999 V2000
   15.6289    6.8750   26.9919 C   0  0  0  0  0  0  0  0  0  0  0  0
   14.8789    7.9181   26.2095 C   0  0  2  0  0  0  0  0  0  0  0  0
   15.4217    8.0418   24.8572 N   0  0  0  0  0  0  0  0  0  0  0  0
   16.6985    8.6610   24.7850 C   0  0  1  0  0  0  0  0  0  0  0  0
   17.7312    7.8964   24.0432 C   0  0  0  0  0  0  0  0  0  0  0  0
   17.5072    7.5920   22.6190 C   0  0  0  0  0  0  0  0  0  0  0  0
   16.3548    6.8092   22.2250 C   0  0  0  0  0  0  0  0  0  0  0  0
   16.4671    5.4126   22.2650 C   0  0  0  0  0  0  0  0  0  0  0  0
   15.4295    4.5899   21.8794 C   0  0  0  0  0  0  0  0  0  0  0  0
   14.2331    5.1054   21.4364 C   0  0  0  0  0  0  0  0  0  0  0  0
   14.0987    6.4771   21.3881 C   0  0  0  0  0  0  0  0  0  0  0  0
   15.1434    7.2887   21.7763 C   0  0  0  0  0  0  0  0  0  0  0  0
   16.6529   10.0295   24.1652 C   0  0  0  0  0  0  0  0  0  0  0  0
   17.6321   10.7981   24.3739 O   0  0  0  0  0  0  0  0  0  0  0  0
   15.5865   10.4563   23.3889 O   0  0  0  0  0  0  0  0  0  0  0  0
   14.7815    9.1886   26.9299 C   0  0  0  0  0  0  0  0  0  0  0  0
   15.2023   10.3028   26.4564 O   0  0  0  0  0  0  0  0  0  0  0  0
   14.2049    9.2555   28.2137 N   0  0  0  0  0  0  0  0  0  0  0  0
   14.0915   10.5055   28.9831 C   0  0  0  0  0  0  0  0  0  0  0  0
   14.4983    9.9786   30.3375 C   0  0  0  0  0  0  0  0  0  0  0  0
   14.2199    8.6608   30.3888 C   0  0  0  0  0  0  0  0  0  0  0  0
   13.6138    8.2523   29.0663 C   0  0  1  0  0  0  0  0  0  0  0  0
   12.1559    8.5628   29.1598 C   0  0  0  0  0  0  0  0  0  0  0  0
   11.6665    9.2301   30.1076 O   0  0  0  0  0  0  0  0  0  0  0  0
   11.2827    8.1007   28.1607 O   0  0  0  0  0  0  0  0  0  0  0  0
  2  1  1  1
  2  3  1  0
  3  4  1  0
  4  5  1  6
  5  6  1  0
  6  7  1  0
  7  8  2  0
  8  9  1  0
  9 10  2  0
 10 11  1  0
 11 12  2  0
  4 13  1  0
 13 14  2  0
 13 15  1  0
  2 16  1  0
 16 17  2  0
 16 18  1  0
 18 19  1  0
 19 20  1  0
 20 21  2  0
 21 22  1  0
 22 23  1  1
 23 24  2  0
 23 25  1  0
 12  7  1  0
 22 18  1  0
M  CHG  3   3   1  15  -1  25  -1
M  END
>  <shape_align_shape_tanimoto>  (2) 
0.55142150085354802

>  <shape_align_color_tanimoto>  (2) 
0.089940056816668307

>  <metric>  (2) 
color

>  <metric_score>  (2) 
0.090

>  <template_pid>  (2) 
1UZE

>  <template_shape_score>  (2) 
0.551

>  <template_color_score>  (2) 
0.090

>  <template_combo_score>  (2) 
0.321

$$$$
1UZE_combo_pose
     RDKit          3D

 25 26  0  0  0  0  0  0  0  0999 V2000
   14.3385    5.5441   26.6310 C   0  0  0  0  0  0  0  0  0  0  0  0
   13.9221    7.0222   26.5209 C   0  0  2  0  0  0  0  0  0  0  0  0
   15.0767    7.8058   26.2308 N   0  0  0  0  0  0  0  0  0  0  0  0
   15.8013    7.3047   25.0794 C   0  0  1  0  0  0  0  0  0  0  0  0
   15.9610    8.1729   23.9167 C   0  0  0  0  0  0  0  0  0  0  0  0
   16.6741    9.4479   23.9693 C   0  0  0  0  0  0  0  0  0  0  0  0
   16.2576   10.5220   24.8368 C   0  0  0  0  0  0  0  0  0  0  0  0
   16.7716   10.7754   26.1145 C   0  0  0  0  0  0  0  0  0  0  0  0
   16.2991   11.8506   26.8529 C   0  0  0  0  0  0  0  0  0  0  0  0
   15.3267   12.7063   26.3894 C   0  0  0  0  0  0  0  0  0  0  0  0
   14.8191   12.4601   25.1350 C   0  0  0  0  0  0  0  0  0  0  0  0
   15.2686   11.4012   24.3792 C   0  0  0  0  0  0  0  0  0  0  0  0
   17.1032    6.6585   25.5028 C   0  0  0  0  0  0  0  0  0  0  0  0
   17.6641    6.9758   26.5880 O   0  0  0  0  0  0  0  0  0  0  0  0
   17.6533    5.6975   24.6393 O   0  0  0  0  0  0  0  0  0  0  0  0
   13.2277    7.4101   27.7406 C   0  0  0  0  0  0  0  0  0  0  0  0
   12.0327    6.8931   27.8445 O   0  0  0  0  0  0  0  0  0  0  0  0
   13.6546    8.2452   28.7996 N   0  0  0  0  0  0  0  0  0  0  0  0
   14.9071    8.9130   29.0209 C   0  0  0  0  0  0  0  0  0  0  0  0
   14.7586    9.6656   30.3191 C   0  0  0  0  0  0  0  0  0  0  0  0
   13.5646    9.4627   30.7922 C   0  0  0  0  0  0  0  0  0  0  0  0
   12.7652    8.5770   29.9116 C   0  0  1  0  0  0  0  0  0  0  0  0
   11.5351    9.2949   29.4403 C   0  0  0  0  0  0  0  0  0  0  0  0
   10.5738    8.7499   28.8799 O   0  0  0  0  0  0  0  0  0  0  0  0
   11.4544   10.6793   29.6416 O   0  0  0  0  0  0  0  0  0  0  0  0
  2  1  1  1
  2  3  1  0
  3  4  1  0
  4  5  1  6
  5  6  1  0
  6  7  1  0
  7  8  2  0
  8  9  1  0
  9 10  2  0
 10 11  1  0
 11 12  2  0
  4 13  1  0
 13 14  2  0
 13 15  1  0
  2 16  1  0
 16 17  2  0
 16 18  1  0
 18 19  1  0
 19 20  1  0
 20 21  2  0
 21 22  1  0
 22 23  1  6
 23 24  2  0
 23 25  1  0
 12  7  1  0
 22 18  1  0
M  CHG  3   3   1  15  -1  25  -1
M  END
>  <shape_align_shape_tanimoto>  (3) 
0.64280444542688997

>  <shape_align_color_tanimoto>  (3) 
0.073319032247633767

>  <metric>  (3) 
combo

>  <metric_score>  (3) 
0.358

>  <template_pid>  (3) 
1UZE

>  <template_shape_score>  (3) 
0.643

>  <template_color_score>  (3) 
0.073

>  <template_combo_score>  (3) 
0.358

$$$$
