5ZE6_shape_pose
     RDKit          3D

 25 25  0  0  0  0  0  0  0  0999 V2000
   36.7512   58.7912    4.3863 C   0  0  0  0  0  0  0  0  0  0  0  0
   35.7186   57.6501    4.5694 C   0  0  0  0  0  0  0  0  0  0  0  0
   34.9737   57.8378    5.8468 C   0  0  0  0  0  0  0  0  0  0  0  0
   33.9016   56.9209    6.1907 C   0  0  0  0  0  0  0  0  0  0  0  0
   34.0421   55.4744    6.3884 C   0  0  0  0  0  0  0  0  0  0  0  0
   34.4426   54.5747    5.3020 C   0  0  0  0  0  0  0  0  0  0  0  0
   34.5397   53.1349    5.6479 C   0  0  0  0  0  0  0  0  0  0  0  0
   35.5338   52.6063    6.5663 C   0  0  0  0  0  0  0  0  0  0  0  0
   35.6773   53.0454    7.9587 C   0  0  0  0  0  0  0  0  0  0  0  0
   36.7844   52.1509    8.6016 C   0  0  0  0  0  0  0  0  0  0  0  0
   37.0121   52.5254   10.0066 C   0  0  0  0  0  0  0  0  0  0  0  0
   35.9364   52.4931   10.9898 C   0  0  0  0  0  0  0  0  0  0  0  0
   35.2727   51.2938   11.4570 C   0  0  0  0  0  0  0  0  0  0  0  0
   34.5788   50.3209   10.6119 C   0  0  0  0  0  0  0  0  0  0  0  0
   35.4114   49.5731    9.7649 O   0  0  0  0  0  0  0  0  0  0  0  0
   34.9032   48.6246    8.8826 C   0  0  0  0  0  0  0  0  0  0  0  0
   33.5195   48.4488    8.8425 C   0  0  0  0  0  0  0  0  0  0  0  0
   32.9151   47.5418    8.0015 C   0  0  0  0  0  0  0  0  0  0  0  0
   33.6987   46.7768    7.1668 C   0  0  0  0  0  0  0  0  0  0  0  0
   35.0566   46.9678    7.2257 C   0  0  0  0  0  0  0  0  0  0  0  0
   35.8503   46.1930    6.3804 O   0  0  0  0  0  0  0  0  0  0  0  0
   35.6847   47.8612    8.0519 C   0  0  0  0  0  0  0  0  0  0  0  0
   37.1341   47.9685    8.0803 C   0  0  0  0  0  0  0  0  0  0  0  0
   37.7956   47.2427    7.2710 O   0  0  0  0  0  0  0  0  0  0  0  0
   37.8558   48.7844    8.9069 O   0  0  0  0  0  0  0  0  0  0  0  0
  1  2  1  0
  2  3  1  0
  3  4  1  0
  4  5  1  0
  5  6  1  0
  6  7  1  0
  7  8  1  0
  8  9  1  0
  9 10  1  0
 10 11  1  0
 11 12  1  0
 12 13  1  0
 13 14  1  0
 14 15  1  0
 15 16  1  0
 16 17  2  0
 17 18  1  0
 18 19  2  0
 19 20  1  0
 20 21  1  0
 20 22  2  0
 22 23  1  0
 23 24  2  0
 23 25  1  0
 22 16  1  0
M  CHG  1  25  -1
M  END
>  <shape_align_shape_tanimoto>  (1) 
0.54376208349948751

>  <shape_align_color_tanimoto>  (1) 
0.030974410605643096

>  <metric>  (1) 
shape

>  <metric_score>  (1) 
0.544

>  <template_pid>  (1) 
5ZE6

>  <template_shape_score>  (1) 
0.544

>  <template_color_score>  (1) 
0.031

>  <template_combo_score>  (1) 
0.287

$$$$
5ZE6_color_pose
     RDKit          3D

 25 25  0  0  0  0  0  0  0  0999 V2000
   31.2149   52.3628    7.6233 C   0  0  0  0  0  0  0  0  0  0  0  0
   31.7305   52.7370    6.2671 C   0  0  0  0  0  0  0  0  0  0  0  0
   31.1408   51.7824    5.2484 C   0  0  0  0  0  0  0  0  0  0  0  0
   31.6203   52.1041    3.8580 C   0  0  0  0  0  0  0  0  0  0  0  0
   33.1096   52.0102    3.7460 C   0  0  0  0  0  0  0  0  0  0  0  0
   33.6156   50.6107    4.0796 C   0  0  0  0  0  0  0  0  0  0  0  0
   35.0978   50.6397    3.9350 C   0  0  0  0  0  0  0  0  0  0  0  0
   35.7803   49.3486    4.2228 C   0  0  0  0  0  0  0  0  0  0  0  0
   35.5278   48.8676    5.6538 C   0  0  0  0  0  0  0  0  0  0  0  0
   36.2240   47.5782    5.9031 C   0  0  0  0  0  0  0  0  0  0  0  0
   36.0943   46.9619    7.2364 C   0  0  0  0  0  0  0  0  0  0  0  0
   34.8226   46.5010    7.7733 C   0  0  0  0  0  0  0  0  0  0  0  0
   33.6880   47.3861    8.0614 C   0  0  0  0  0  0  0  0  0  0  0  0
   33.9083   48.4668    9.0685 C   0  0  0  0  0  0  0  0  0  0  0  0
   34.9126   49.3892    8.7923 O   0  0  0  0  0  0  0  0  0  0  0  0
   35.1072   50.3954    9.7506 C   0  0  0  0  0  0  0  0  0  0  0  0
   34.3531   50.4767   10.9036 C   0  0  0  0  0  0  0  0  0  0  0  0
   34.5409   51.4650   11.8493 C   0  0  0  0  0  0  0  0  0  0  0  0
   35.5032   52.4143   11.6655 C   0  0  0  0  0  0  0  0  0  0  0  0
   36.2682   52.3582   10.5281 C   0  0  0  0  0  0  0  0  0  0  0  0
   37.2429   53.3315   10.3562 O   0  0  0  0  0  0  0  0  0  0  0  0
   36.0758   51.3606    9.5775 C   0  0  0  0  0  0  0  0  0  0  0  0
   36.9452   51.4006    8.4140 C   0  0  0  0  0  0  0  0  0  0  0  0
   38.0635   50.8026    8.3666 O   0  0  0  0  0  0  0  0  0  0  0  0
   36.4745   52.1517    7.3201 O   0  0  0  0  0  0  0  0  0  0  0  0
  1  2  1  0
  2  3  1  0
  3  4  1  0
  4  5  1  0
  5  6  1  0
  6  7  1  0
  7  8  1  0
  8  9  1  0
  9 10  1  0
 10 11  1  0
 11 12  1  0
 12 13  1  0
 13 14  1  0
 14 15  1  0
 15 16  1  0
 16 17  2  0
 17 18  1  0
 18 19  2  0
 19 20  1  0
 20 21  1  0
 20 22  2  0
 22 23  1  0
 23 24  2  0
 23 25  1  0
 22 16  1  0
M  CHG  1  25  -1
M  END
>  <shape_align_shape_tanimoto>  (2) 
0.48677325545997246

>  <shape_align_color_tanimoto>  (2) 
0.14572529539566884

>  <metric>  (2) 
color

>  <metric_score>  (2) 
0.146

>  <template_pid>  (2) 
5ZE6

>  <template_shape_score>  (2) 
0.487

>  <template_color_score>  (2) 
0.146

>  <template_combo_score>  (2) 
0.316

$$$$
5ZE6_combo_pose
     RDKit          3D

 25 25  0  0  0  0  0  0  0  0999 V2000
   31.2149   52.3628    7.6233 C   0  0  0  0  0  0  0  0  0  0  0  0
   31.7305   52.7370    6.2671 C   0  0  0  0  0  0  0  0  0  0  0  0
   31.1408   51.7824    5.2484 C   0  0  0  0  0  0  0  0  0  0  0  0
   31.6203   52.1041    3.8580 C   0  0  0  0  0  0  0  0  0  0  0  0
   33.1096   52.0102    3.7460 C   0  0  0  0  0  0  0  0  0  0  0  0
   33.6156   50.6107    4.0796 C   0  0  0  0  0  0  0  0  0  0  0  0
   35.0978   50.6397    3.9350 C   0  0  0  0  0  0  0  0  0  0  0  0
   35.7803   49.3486    4.2228 C   0  0  0  0  0  0  0  0  0  0  0  0
   35.5278   48.8676    5.6538 C   0  0  0  0  0  0  0  0  0  0  0  0
   36.2240   47.5782    5.9031 C   0  0  0  0  0  0  0  0  0  0  0  0
   36.0943   46.9619    7.2364 C   0  0  0  0  0  0  0  0  0  0  0  0
   34.8226   46.5010    7.7733 C   0  0  0  0  0  0  0  0  0  0  0  0
   33.6880   47.3861    8.0614 C   0  0  0  0  0  0  0  0  0  0  0  0
   33.9083   48.4668    9.0685 C   0  0  0  0  0  0  0  0  0  0  0  0
   34.9126   49.3892    8.7923 O   0  0  0  0  0  0  0  0  0  0  0  0
   35.1072   50.3954    9.7506 C   0  0  0  0  0  0  0  0  0  0  0  0
   34.3531   50.4767   10.9036 C   0  0  0  0  0  0  0  0  0  0  0  0
   34.5409   51.4650   11.8493 C   0  0  0  0  0  0  0  0  0  0  0  0
   35.5032   52.4143   11.6655 C   0  0  0  0  0  0  0  0  0  0  0  0
   36.2682   52.3582   10.5281 C   0  0  0  0  0  0  0  0  0  0  0  0
   37.2429   53.3315   10.3562 O   0  0  0  0  0  0  0  0  0  0  0  0
   36.0758   51.3606    9.5775 C   0  0  0  0  0  0  0  0  0  0  0  0
   36.9452   51.4006    8.4140 C   0  0  0  0  0  0  0  0  0  0  0  0
   38.0635   50.8026    8.3666 O   0  0  0  0  0  0  0  0  0  0  0  0
   36.4745   52.1517    7.3201 O   0  0  0  0  0  0  0  0  0  0  0  0
  1  2  1  0
  2  3  1  0
  3  4  1  0
  4  5  1  0
  5  6  1  0
  6  7  1  0
  7  8  1  0
  8  9  1  0
  9 10  1  0
 10 11  1  0
 11 12  1  0
 12 13  1  0
 13 14  1  0
 14 15  1  0
 15 16  1  0
 16 17  2  0
 17 18  1  0
 18 19  2  0
 19 20  1  0
 20 21  1  0
 20 22  2  0
 22 23  1  0
 23 24  2  0
 23 25  1  0
 22 16  1  0
M  CHG  1  25  -1
M  END
>  <shape_align_shape_tanimoto>  (3) 
0.48677325545997246

>  <shape_align_color_tanimoto>  (3) 
0.14572529539566884

>  <metric>  (3) 
combo

>  <metric_score>  (3) 
0.316

>  <template_pid>  (3) 
5ZE6

>  <template_shape_score>  (3) 
0.487

>  <template_color_score>  (3) 
0.146

>  <template_combo_score>  (3) 
0.316

$$$$
