4E90_shape_pose
     RDKit          3D

 29 33  0  0  0  0  0  0  0  0999 V2000
   22.5500   -2.8085   34.7151 C   0  0  0  0  0  0  0  0  0  0  0  0
   22.5831   -3.3940   33.3516 C   0  0  2  0  0  0  0  0  0  0  0  0
   22.0461   -2.4467   32.2640 C   0  0  0  0  0  0  0  0  0  0  0  0
   21.9969   -3.4115   31.1819 N   0  0  2  0  0  0  0  0  0  0  0  0
   21.5287   -2.8397   29.9456 C   0  0  0  0  0  0  0  0  0  0  0  0
   20.8035   -3.8999   29.1949 C   0  0  0  0  0  0  0  0  0  0  0  0
   21.4850   -4.6959   28.3273 N   0  0  0  0  0  0  0  0  0  0  0  0
   20.8500   -5.6680   27.6314 C   0  0  0  0  0  0  0  0  0  0  0  0
   19.4841   -5.8881   27.7768 C   0  0  0  0  0  0  0  0  0  0  0  0
   18.8045   -5.0738   28.6600 C   0  0  0  0  0  0  0  0  0  0  0  0
   19.4826   -4.1223   29.3271 N   0  0  0  0  0  0  0  0  0  0  0  0
   21.1538   -4.4338   31.7052 C   0  0  0  0  0  0  0  0  0  0  0  0
   21.5690   -4.5282   33.1560 C   0  0  1  0  0  0  0  0  0  0  0  0
   22.1144   -5.8540   33.4201 C   0  0  0  0  0  0  0  0  0  0  0  0
   21.5375   -6.5879   34.4128 N   0  0  0  0  0  0  0  0  0  0  0  0
   21.9465   -7.8120   34.7481 C   0  0  0  0  0  0  0  0  0  0  0  0
   21.3895   -8.4559   35.6679 O   0  0  0  0  0  0  0  0  0  0  0  0
   23.0077   -8.3864   34.0683 C   0  0  0  0  0  0  0  0  0  0  0  0
   23.6634   -9.5929   34.1556 C   0  0  0  0  0  0  0  0  0  0  0  0
   24.6222   -9.5518   33.2079 N   0  0  0  0  0  0  0  0  0  0  0  0
   24.5712   -8.3947   32.5678 N   0  0  0  0  0  0  0  0  0  0  0  0
   25.4860   -8.0387   31.4750 C   0  0  0  0  0  0  0  0  0  0  0  0
   25.4470   -9.0242   30.3517 C   0  0  0  0  0  0  0  0  0  0  0  0
   26.8545   -9.1518   29.7943 C   0  0  0  0  0  0  0  0  0  0  0  0
   27.4283   -7.8842   29.6924 O   0  0  0  0  0  0  0  0  0  0  0  0
   27.7825   -7.3921   30.9349 C   0  0  0  0  0  0  0  0  0  0  0  0
   26.8987   -7.9023   32.0509 C   0  0  0  0  0  0  0  0  0  0  0  0
   23.5790   -7.6303   33.0679 C   0  0  0  0  0  0  0  0  0  0  0  0
   23.1385   -6.3910   32.7539 N   0  0  0  0  0  0  0  0  0  0  0  0
  2  1  1  1
  2  3  1  0
  3  4  1  0
  4  5  1  6
  5  6  1  0
  6  7  2  0
  7  8  1  0
  8  9  2  0
  9 10  1  0
 10 11  2  0
  4 12  1  0
 12 13  1  0
 13 14  1  6
 14 15  2  0
 15 16  1  0
 16 17  2  0
 16 18  1  0
 18 19  1  0
 19 20  2  0
 20 21  1  0
 21 22  1  0
 22 23  1  0
 23 24  1  0
 24 25  1  0
 25 26  1  0
 26 27  1  0
 21 28  1  0
 28 29  1  0
 13  2  1  0
 29 14  1  0
 11  6  1  0
 28 18  2  0
 27 22  1  0
M  CHG  1   4   1
M  END
>  <shape_align_shape_tanimoto>  (1) 
0.72694861574085545

>  <shape_align_color_tanimoto>  (1) 
0.10463740090609264

>  <metric>  (1) 
shape

>  <metric_score>  (1) 
0.727

>  <template_pid>  (1) 
4E90

>  <template_shape_score>  (1) 
0.727

>  <template_color_score>  (1) 
0.105

>  <template_combo_score>  (1) 
0.416

$$$$
4E90_color_pose
     RDKit          3D

 29 33  0  0  0  0  0  0  0  0999 V2000
   22.5087   -2.6761   34.6943 C   0  0  0  0  0  0  0  0  0  0  0  0
   22.5769   -3.3122   33.3441 C   0  0  2  0  0  0  0  0  0  0  0  0
   22.0647   -2.3706   32.2324 C   0  0  0  0  0  0  0  0  0  0  0  0
   22.0276   -3.3541   31.1657 N   0  0  2  0  0  0  0  0  0  0  0  0
   21.5257   -2.8008   29.9285 C   0  0  0  0  0  0  0  0  0  0  0  0
   20.7983   -3.8940   29.2296 C   0  0  0  0  0  0  0  0  0  0  0  0
   21.4624   -4.7050   28.3678 N   0  0  0  0  0  0  0  0  0  0  0  0
   20.8576   -5.7050   27.7112 C   0  0  0  0  0  0  0  0  0  0  0  0
   19.5038   -5.9528   27.8917 C   0  0  0  0  0  0  0  0  0  0  0  0
   18.8388   -5.1288   28.7645 C   0  0  0  0  0  0  0  0  0  0  0  0
   19.4832   -4.1315   29.4076 N   0  0  0  0  0  0  0  0  0  0  0  0
   21.1410   -4.3426   31.7319 C   0  0  0  0  0  0  0  0  0  0  0  0
   21.6538   -4.4775   33.1472 C   0  0  1  0  0  0  0  0  0  0  0  0
   22.2238   -5.8049   33.3098 C   0  0  0  0  0  0  0  0  0  0  0  0
   21.6061   -6.6442   34.1999 N   0  0  0  0  0  0  0  0  0  0  0  0
   22.0402   -7.8951   34.4378 C   0  0  0  0  0  0  0  0  0  0  0  0
   21.4293   -8.6171   35.2675 O   0  0  0  0  0  0  0  0  0  0  0  0
   23.1345   -8.3839   33.7876 C   0  0  0  0  0  0  0  0  0  0  0  0
   23.8290   -9.5716   33.7866 C   0  0  0  0  0  0  0  0  0  0  0  0
   24.8358   -9.4219   32.9072 N   0  0  0  0  0  0  0  0  0  0  0  0
   24.8218   -8.2368   32.3626 N   0  0  0  0  0  0  0  0  0  0  0  0
   25.7243   -7.6522   31.3631 C   0  0  0  0  0  0  0  0  0  0  0  0
   26.5321   -6.5559   31.9964 C   0  0  0  0  0  0  0  0  0  0  0  0
   26.7090   -5.3298   31.1679 C   0  0  0  0  0  0  0  0  0  0  0  0
   26.7463   -5.7213   29.8286 O   0  0  0  0  0  0  0  0  0  0  0  0
   25.3858   -5.9537   29.5213 C   0  0  0  0  0  0  0  0  0  0  0  0
   24.9970   -7.2834   30.1157 C   0  0  0  0  0  0  0  0  0  0  0  0
   23.7696   -7.5512   32.8866 C   0  0  0  0  0  0  0  0  0  0  0  0
   23.2854   -6.2946   32.6863 N   0  0  0  0  0  0  0  0  0  0  0  0
  2  1  1  1
  2  3  1  0
  3  4  1  0
  4  5  1  6
  5  6  1  0
  6  7  2  0
  7  8  1  0
  8  9  2  0
  9 10  1  0
 10 11  2  0
  4 12  1  0
 12 13  1  0
 13 14  1  6
 14 15  2  0
 15 16  1  0
 16 17  2  0
 16 18  1  0
 18 19  1  0
 19 20  2  0
 20 21  1  0
 21 22  1  0
 22 23  1  0
 23 24  1  0
 24 25  1  0
 25 26  1  0
 26 27  1  0
 21 28  1  0
 28 29  1  0
 13  2  1  0
 29 14  1  0
 11  6  1  0
 28 18  2  0
 27 22  1  0
M  CHG  1   4   1
M  END
>  <shape_align_shape_tanimoto>  (2) 
0.70851209355542899

>  <shape_align_color_tanimoto>  (2) 
0.11349900427207656

>  <metric>  (2) 
color

>  <metric_score>  (2) 
0.113

>  <template_pid>  (2) 
4E90

>  <template_shape_score>  (2) 
0.709

>  <template_color_score>  (2) 
0.113

>  <template_combo_score>  (2) 
0.411

$$$$
4E90_combo_pose
     RDKit          3D

 29 33  0  0  0  0  0  0  0  0999 V2000
   22.5500   -2.8085   34.7151 C   0  0  0  0  0  0  0  0  0  0  0  0
   22.5831   -3.3940   33.3516 C   0  0  2  0  0  0  0  0  0  0  0  0
   22.0461   -2.4467   32.2640 C   0  0  0  0  0  0  0  0  0  0  0  0
   21.9969   -3.4115   31.1819 N   0  0  2  0  0  0  0  0  0  0  0  0
   21.5287   -2.8397   29.9456 C   0  0  0  0  0  0  0  0  0  0  0  0
   20.8035   -3.8999   29.1949 C   0  0  0  0  0  0  0  0  0  0  0  0
   21.4850   -4.6959   28.3273 N   0  0  0  0  0  0  0  0  0  0  0  0
   20.8500   -5.6680   27.6314 C   0  0  0  0  0  0  0  0  0  0  0  0
   19.4841   -5.8881   27.7768 C   0  0  0  0  0  0  0  0  0  0  0  0
   18.8045   -5.0738   28.6600 C   0  0  0  0  0  0  0  0  0  0  0  0
   19.4826   -4.1223   29.3271 N   0  0  0  0  0  0  0  0  0  0  0  0
   21.1538   -4.4338   31.7052 C   0  0  0  0  0  0  0  0  0  0  0  0
   21.5690   -4.5282   33.1560 C   0  0  1  0  0  0  0  0  0  0  0  0
   22.1144   -5.8540   33.4201 C   0  0  0  0  0  0  0  0  0  0  0  0
   21.5375   -6.5879   34.4128 N   0  0  0  0  0  0  0  0  0  0  0  0
   21.9465   -7.8120   34.7481 C   0  0  0  0  0  0  0  0  0  0  0  0
   21.3895   -8.4559   35.6679 O   0  0  0  0  0  0  0  0  0  0  0  0
   23.0077   -8.3864   34.0683 C   0  0  0  0  0  0  0  0  0  0  0  0
   23.6634   -9.5929   34.1556 C   0  0  0  0  0  0  0  0  0  0  0  0
   24.6222   -9.5518   33.2079 N   0  0  0  0  0  0  0  0  0  0  0  0
   24.5712   -8.3947   32.5678 N   0  0  0  0  0  0  0  0  0  0  0  0
   25.4860   -8.0387   31.4750 C   0  0  0  0  0  0  0  0  0  0  0  0
   25.4470   -9.0242   30.3517 C   0  0  0  0  0  0  0  0  0  0  0  0
   26.8545   -9.1518   29.7943 C   0  0  0  0  0  0  0  0  0  0  0  0
   27.4283   -7.8842   29.6924 O   0  0  0  0  0  0  0  0  0  0  0  0
   27.7825   -7.3921   30.9349 C   0  0  0  0  0  0  0  0  0  0  0  0
   26.8987   -7.9023   32.0509 C   0  0  0  0  0  0  0  0  0  0  0  0
   23.5790   -7.6303   33.0679 C   0  0  0  0  0  0  0  0  0  0  0  0
   23.1385   -6.3910   32.7539 N   0  0  0  0  0  0  0  0  0  0  0  0
  2  1  1  1
  2  3  1  0
  3  4  1  0
  4  5  1  6
  5  6  1  0
  6  7  2  0
  7  8  1  0
  8  9  2  0
  9 10  1  0
 10 11  2  0
  4 12  1  0
 12 13  1  0
 13 14  1  6
 14 15  2  0
 15 16  1  0
 16 17  2  0
 16 18  1  0
 18 19  1  0
 19 20  2  0
 20 21  1  0
 21 22  1  0
 22 23  1  0
 23 24  1  0
 24 25  1  0
 25 26  1  0
 26 27  1  0
 21 28  1  0
 28 29  1  0
 13  2  1  0
 29 14  1  0
 11  6  1  0
 28 18  2  0
 27 22  1  0
M  CHG  1   4   1
M  END
>  <shape_align_shape_tanimoto>  (3) 
0.72694861574085545

>  <shape_align_color_tanimoto>  (3) 
0.10463740090609264

>  <metric>  (3) 
combo

>  <metric_score>  (3) 
0.416

>  <template_pid>  (3) 
4E90

>  <template_shape_score>  (3) 
0.727

>  <template_color_score>  (3) 
0.105

>  <template_combo_score>  (3) 
0.416

$$$$
