2QW1_shape_pose
     RDKit          3D

 13 13  0  0  0  0  0  0  0  0999 V2000
   19.4087    4.0245    9.5874 C   0  0  0  0  0  0  0  0  0  0  0  0
   20.3071    3.8058   10.5974 O   0  0  0  0  0  0  0  0  0  0  0  0
   20.9492    4.9216   11.0781 C   0  0  2  0  0  0  0  0  0  0  0  0
   22.4148    4.7111   10.7354 C   0  0  1  0  0  0  0  0  0  0  0  0
   22.5601    4.7618    9.3487 O   0  0  0  0  0  0  0  0  0  0  0  0
   23.2454    5.7463   11.4316 C   0  0  2  0  0  0  0  0  0  0  0  0
   24.5476    5.7764   11.0210 O   0  0  0  0  0  0  0  0  0  0  0  0
   23.1189    5.4833   12.8118 O   0  0  0  0  0  0  0  0  0  0  0  0
   21.8848    5.9616   13.1554 C   0  0  2  0  0  0  0  0  0  0  0  0
   21.6644    6.0372   14.6472 C   0  0  0  0  0  0  0  0  0  0  0  0
   22.6316    6.8974   15.2108 O   0  0  0  0  0  0  0  0  0  0  0  0
   20.7434    5.1706   12.5390 C   0  0  1  0  0  0  0  0  0  0  0  0
   19.6133    5.9528   12.8057 O   0  0  0  0  0  0  0  0  0  0  0  0
  1  2  1  0
  3  2  1  1
  3  4  1  0
  4  5  1  6
  4  6  1  0
  6  7  1  6
  6  8  1  0
  8  9  1  0
  9 10  1  1
 10 11  1  0
  9 12  1  0
 12 13  1  6
 12  3  1  0
M  END
>  <shape_align_shape_tanimoto>  (1) 
0.75892317154283828

>  <shape_align_color_tanimoto>  (1) 
0.07471864310345297

>  <metric>  (1) 
shape

>  <metric_score>  (1) 
0.759

>  <template_pid>  (1) 
2QW1

>  <template_shape_score>  (1) 
0.759

>  <template_color_score>  (1) 
0.075

>  <template_combo_score>  (1) 
0.417

$$$$
2QW1_color_pose
     RDKit          3D

 13 13  0  0  0  0  0  0  0  0999 V2000
   21.7873    8.3669   10.7126 C   0  0  0  0  0  0  0  0  0  0  0  0
   21.6179    7.0761   11.1409 O   0  0  0  0  0  0  0  0  0  0  0  0
   22.5482    6.1708   10.7184 C   0  0  2  0  0  0  0  0  0  0  0  0
   21.9290    4.9387   10.0684 C   0  0  1  0  0  0  0  0  0  0  0  0
   22.9846    4.0648    9.8104 O   0  0  0  0  0  0  0  0  0  0  0  0
   20.9560    4.3677   11.0687 C   0  0  2  0  0  0  0  0  0  0  0  0
   19.7132    4.1722   10.4724 O   0  0  0  0  0  0  0  0  0  0  0  0
   20.8182    5.1583   12.1942 O   0  0  0  0  0  0  0  0  0  0  0  0
   22.0084    5.2571   12.8964 C   0  0  2  0  0  0  0  0  0  0  0  0
   21.9158    6.2739   13.9948 C   0  0  0  0  0  0  0  0  0  0  0  0
   20.9122    5.9186   14.8913 O   0  0  0  0  0  0  0  0  0  0  0  0
   23.1800    5.6177   11.9981 C   0  0  1  0  0  0  0  0  0  0  0  0
   23.8814    4.4604   11.7464 O   0  0  0  0  0  0  0  0  0  0  0  0
  1  2  1  0
  3  2  1  1
  3  4  1  0
  4  5  1  1
  4  6  1  0
  6  7  1  6
  6  8  1  0
  8  9  1  0
  9 10  1  1
 10 11  1  0
  9 12  1  0
 12 13  1  6
 12  3  1  0
M  END
>  <shape_align_shape_tanimoto>  (2) 
0.59416773826708214

>  <shape_align_color_tanimoto>  (2) 
0.15806794031950638

>  <metric>  (2) 
color

>  <metric_score>  (2) 
0.158

>  <template_pid>  (2) 
2QW1

>  <template_shape_score>  (2) 
0.594

>  <template_color_score>  (2) 
0.158

>  <template_combo_score>  (2) 
0.376

$$$$
2QW1_combo_pose
     RDKit          3D

 13 13  0  0  0  0  0  0  0  0999 V2000
   21.6366    5.9079   14.9606 C   0  0  0  0  0  0  0  0  0  0  0  0
   21.7384    6.4141   13.6924 O   0  0  0  0  0  0  0  0  0  0  0  0
   21.8806    5.4968   12.6870 C   0  0  2  0  0  0  0  0  0  0  0  0
   23.1888    5.6614   11.9824 C   0  0  1  0  0  0  0  0  0  0  0  0
   24.1595    4.9998   12.7687 O   0  0  0  0  0  0  0  0  0  0  0  0
   23.2711    5.0650   10.6178 C   0  0  2  0  0  0  0  0  0  0  0  0
   24.2335    5.8046    9.9207 O   0  0  0  0  0  0  0  0  0  0  0  0
   22.1078    5.0483    9.8931 O   0  0  0  0  0  0  0  0  0  0  0  0
   21.1180    4.4202   10.6790 C   0  0  2  0  0  0  0  0  0  0  0  0
   19.9342    3.9742    9.8603 C   0  0  0  0  0  0  0  0  0  0  0  0
   19.0253    3.3705   10.7366 O   0  0  0  0  0  0  0  0  0  0  0  0
   20.7418    5.4702   11.7049 C   0  0  1  0  0  0  0  0  0  0  0  0
   19.5379    5.1941   12.3314 O   0  0  0  0  0  0  0  0  0  0  0  0
  1  2  1  0
  3  2  1  1
  3  4  1  0
  4  5  1  1
  4  6  1  0
  6  7  1  6
  6  8  1  0
  8  9  1  0
  9 10  1  6
 10 11  1  0
  9 12  1  0
 12 13  1  1
 12  3  1  0
M  END
>  <shape_align_shape_tanimoto>  (3) 
0.73942608882796501

>  <shape_align_color_tanimoto>  (3) 
0.13651991401460539

>  <metric>  (3) 
combo

>  <metric_score>  (3) 
0.438

>  <template_pid>  (3) 
2QW1

>  <template_shape_score>  (3) 
0.739

>  <template_color_score>  (3) 
0.137

>  <template_combo_score>  (3) 
0.438

$$$$
