1Z9G_shape_pose
     RDKit          3D

 17 17  0  0  0  0  0  0  0  0999 V2000
   93.1973   65.7247  -10.8865 O   0  0  0  0  0  0  0  0  0  0  0  0
   94.3935   65.4819  -10.5565 C   0  0  0  0  0  0  0  0  0  0  0  0
   94.9597   64.2445  -10.8300 O   0  0  0  0  0  0  0  0  0  0  0  0
   95.1392   66.5726   -9.8754 C   0  0  0  0  0  0  0  0  0  0  0  0
   94.6247   66.6494   -8.4784 C   0  0  0  0  0  0  0  0  0  0  0  0
   94.7214   65.6649   -7.7347 O   0  0  0  0  0  0  0  0  0  0  0  0
   94.0324   67.8909   -8.0664 N   0  0  0  0  0  0  0  0  0  0  0  0
   93.5093   67.9888   -6.6659 C   0  0  1  0  0  0  0  0  0  0  0  0
   94.2921   69.0140   -5.9446 C   0  0  0  0  0  0  0  0  0  0  0  0
   93.8944   69.3050   -4.2357 S   0  0  0  0  0  0  0  0  0  0  0  0
   92.0270   68.1611   -6.7178 C   0  0  0  0  0  0  0  0  0  0  0  0
   91.3904   68.2734   -5.3985 C   0  0  0  0  0  0  0  0  0  0  0  0
   91.0842   69.4773   -4.7803 C   0  0  0  0  0  0  0  0  0  0  0  0
   90.4782   69.4567   -3.5256 C   0  0  0  0  0  0  0  0  0  0  0  0
   90.1766   68.2753   -2.8859 C   0  0  0  0  0  0  0  0  0  0  0  0
   90.4799   67.0626   -3.4980 C   0  0  0  0  0  0  0  0  0  0  0  0
   91.0794   67.0913   -4.7392 C   0  0  0  0  0  0  0  0  0  0  0  0
  1  2  2  0
  2  3  1  0
  2  4  1  0
  4  5  1  0
  5  6  2  0
  5  7  1  0
  7  8  1  0
  8  9  1  6
  9 10  1  0
  8 11  1  0
 11 12  1  0
 12 13  2  0
 13 14  1  0
 14 15  2  0
 15 16  1  0
 16 17  2  0
 17 12  1  0
M  CHG  1   3  -1
M  END
>  <shape_align_shape_tanimoto>  (1) 
0.75069533337075023

>  <shape_align_color_tanimoto>  (1) 
0.1391330719824701

>  <metric>  (1) 
shape

>  <metric_score>  (1) 
0.751

>  <template_pid>  (1) 
1Z9G

>  <template_shape_score>  (1) 
0.751

>  <template_color_score>  (1) 
0.139

>  <template_combo_score>  (1) 
0.445

$$$$
1Z9G_color_pose
     RDKit          3D

 17 17  0  0  0  0  0  0  0  0999 V2000
   93.0168   68.9165   -3.5283 O   0  0  0  0  0  0  0  0  0  0  0  0
   91.7750   68.8041   -3.4693 C   0  0  0  0  0  0  0  0  0  0  0  0
   91.2134   69.1140   -2.2077 O   0  0  0  0  0  0  0  0  0  0  0  0
   90.8504   68.4031   -4.5119 C   0  0  0  0  0  0  0  0  0  0  0  0
   91.3918   68.0734   -5.8343 C   0  0  0  0  0  0  0  0  0  0  0  0
   90.5394   67.7257   -6.7198 O   0  0  0  0  0  0  0  0  0  0  0  0
   92.7323   68.0959   -6.2369 N   0  0  0  0  0  0  0  0  0  0  0  0
   93.1522   67.7368   -7.6169 C   0  0  1  0  0  0  0  0  0  0  0  0
   93.7157   68.9486   -8.2924 C   0  0  0  0  0  0  0  0  0  0  0  0
   94.2291   68.6976   -9.9877 S   0  0  0  0  0  0  0  0  0  0  0  0
   94.0096   66.5289   -7.5806 C   0  0  0  0  0  0  0  0  0  0  0  0
   94.5016   66.0608   -8.8757 C   0  0  0  0  0  0  0  0  0  0  0  0
   95.7309   66.3495   -9.4232 C   0  0  0  0  0  0  0  0  0  0  0  0
   96.1237   65.8551  -10.6722 C   0  0  0  0  0  0  0  0  0  0  0  0
   95.2765   65.0509  -11.4032 C   0  0  0  0  0  0  0  0  0  0  0  0
   94.0495   64.7552  -10.8708 C   0  0  0  0  0  0  0  0  0  0  0  0
   93.6630   65.2463   -9.6333 C   0  0  0  0  0  0  0  0  0  0  0  0
  1  2  2  0
  2  3  1  0
  2  4  1  0
  4  5  1  0
  5  6  2  0
  5  7  1  0
  7  8  1  0
  8  9  1  1
  9 10  1  0
  8 11  1  0
 11 12  1  0
 12 13  2  0
 13 14  1  0
 14 15  2  0
 15 16  1  0
 16 17  2  0
 17 12  1  0
M  CHG  1   3  -1
M  END
>  <shape_align_shape_tanimoto>  (2) 
0.65627443952635334

>  <shape_align_color_tanimoto>  (2) 
0.14878835157392703

>  <metric>  (2) 
color

>  <metric_score>  (2) 
0.149

>  <template_pid>  (2) 
1Z9G

>  <template_shape_score>  (2) 
0.656

>  <template_color_score>  (2) 
0.149

>  <template_combo_score>  (2) 
0.403

$$$$
1Z9G_combo_pose
     RDKit          3D

 17 17  0  0  0  0  0  0  0  0999 V2000
   93.1973   65.7247  -10.8865 O   0  0  0  0  0  0  0  0  0  0  0  0
   94.3935   65.4819  -10.5565 C   0  0  0  0  0  0  0  0  0  0  0  0
   94.9597   64.2445  -10.8300 O   0  0  0  0  0  0  0  0  0  0  0  0
   95.1392   66.5726   -9.8754 C   0  0  0  0  0  0  0  0  0  0  0  0
   94.6247   66.6494   -8.4784 C   0  0  0  0  0  0  0  0  0  0  0  0
   94.7214   65.6649   -7.7347 O   0  0  0  0  0  0  0  0  0  0  0  0
   94.0324   67.8909   -8.0664 N   0  0  0  0  0  0  0  0  0  0  0  0
   93.5093   67.9888   -6.6659 C   0  0  1  0  0  0  0  0  0  0  0  0
   94.2921   69.0140   -5.9446 C   0  0  0  0  0  0  0  0  0  0  0  0
   93.8944   69.3050   -4.2357 S   0  0  0  0  0  0  0  0  0  0  0  0
   92.0270   68.1611   -6.7178 C   0  0  0  0  0  0  0  0  0  0  0  0
   91.3904   68.2734   -5.3985 C   0  0  0  0  0  0  0  0  0  0  0  0
   91.0842   69.4773   -4.7803 C   0  0  0  0  0  0  0  0  0  0  0  0
   90.4782   69.4567   -3.5256 C   0  0  0  0  0  0  0  0  0  0  0  0
   90.1766   68.2753   -2.8859 C   0  0  0  0  0  0  0  0  0  0  0  0
   90.4799   67.0626   -3.4980 C   0  0  0  0  0  0  0  0  0  0  0  0
   91.0794   67.0913   -4.7392 C   0  0  0  0  0  0  0  0  0  0  0  0
  1  2  2  0
  2  3  1  0
  2  4  1  0
  4  5  1  0
  5  6  2  0
  5  7  1  0
  7  8  1  0
  8  9  1  6
  9 10  1  0
  8 11  1  0
 11 12  1  0
 12 13  2  0
 13 14  1  0
 14 15  2  0
 15 16  1  0
 16 17  2  0
 17 12  1  0
M  CHG  1   3  -1
M  END
>  <shape_align_shape_tanimoto>  (3) 
0.75069533337075023

>  <shape_align_color_tanimoto>  (3) 
0.1391330719824701

>  <metric>  (3) 
combo

>  <metric_score>  (3) 
0.445

>  <template_pid>  (3) 
1Z9G

>  <template_shape_score>  (3) 
0.751

>  <template_color_score>  (3) 
0.139

>  <template_combo_score>  (3) 
0.445

$$$$
