3EYH_shape_pose
     RDKit          3D

 23 26  0  0  0  0  0  0  0  0999 V2000
   -8.5692   12.5405   52.6836 C   0  0  0  0  0  0  0  0  0  0  0  0
   -9.8469   11.7982   52.3567 C   0  0  0  0  0  0  0  0  0  0  0  0
  -10.5148   12.3758   51.1182 C   0  0  0  0  0  0  0  0  0  0  0  0
  -10.7750   11.9430   53.5449 C   0  0  0  0  0  0  0  0  0  0  0  0
   -9.5187   10.3735   52.0841 C   0  0  0  0  0  0  0  0  0  0  0  0
   -9.2142    9.9093   50.8380 N   0  0  0  0  0  0  0  0  0  0  0  0
   -8.9642    8.5889   50.9025 C   0  0  0  0  0  0  0  0  0  0  0  0
   -8.6108    7.6177   49.9572 C   0  0  0  0  0  0  0  0  0  0  0  0
   -8.4092    6.3011   50.3010 C   0  0  0  0  0  0  0  0  0  0  0  0
   -8.5631    5.9459   51.6142 C   0  0  0  0  0  0  0  0  0  0  0  0
   -8.3759    4.6468   52.0226 C   0  0  0  0  0  0  0  0  0  0  0  0
   -8.5354    4.2906   53.3698 C   0  0  0  0  0  0  0  0  0  0  0  0
   -8.3548    3.0153   53.7887 F   0  0  0  0  0  0  0  0  0  0  0  0
   -8.8826    5.2871   54.2494 C   0  0  0  0  0  0  0  0  0  0  0  0
   -9.0776    6.5834   53.8904 C   0  0  0  0  0  0  0  0  0  0  0  0
   -8.9064    6.8891   52.5333 C   0  0  0  0  0  0  0  0  0  0  0  0
   -9.1190    8.2327   52.2222 C   0  0  0  0  0  0  0  0  0  0  0  0
   -9.4542    9.3279   52.9174 N   0  0  0  0  0  0  0  0  0  0  0  0
   -8.0440    5.3474   49.2666 C   0  0  0  0  0  0  0  0  0  0  0  0
   -7.8417    4.1441   49.4754 O   0  0  0  0  0  0  0  0  0  0  0  0
   -7.9044    5.7977   47.9274 N   0  0  0  0  0  0  0  0  0  0  0  0
   -8.0974    7.0191   47.6428 C   0  0  0  0  0  0  0  0  0  0  0  0
   -8.4694    8.1051   48.5646 C   0  0  0  0  0  0  0  0  0  0  0  0
  1  2  1  0
  2  3  1  0
  2  4  1  0
  2  5  1  0
  5  6  2  0
  6  7  1  0
  7  8  2  0
  8  9  1  0
  9 10  2  0
 10 11  1  0
 11 12  2  0
 12 13  1  0
 12 14  1  0
 14 15  2  0
 15 16  1  0
 16 17  2  0
 17 18  1  0
  9 19  1  0
 19 20  2  0
 19 21  1  0
 21 22  2  0
 22 23  1  0
 18  5  1  0
 17  7  1  0
 23  8  1  0
 16 10  1  0
M  END
>  <shape_align_shape_tanimoto>  (1) 
0.85464948375591099

>  <shape_align_color_tanimoto>  (1) 
0.06578798852938289

>  <metric>  (1) 
shape

>  <metric_score>  (1) 
0.855

>  <template_pid>  (1) 
3EYH

>  <template_shape_score>  (1) 
0.855

>  <template_color_score>  (1) 
0.066

>  <template_combo_score>  (1) 
0.460

$$$$
3EYH_color_pose
     RDKit          3D

 23 26  0  0  0  0  0  0  0  0999 V2000
   -9.1168    6.3664   45.9460 C   0  0  0  0  0  0  0  0  0  0  0  0
   -7.8396    6.7252   46.6943 C   0  0  0  0  0  0  0  0  0  0  0  0
   -7.3115    7.9945   46.0988 C   0  0  0  0  0  0  0  0  0  0  0  0
   -6.8373    5.6275   46.4327 C   0  0  0  0  0  0  0  0  0  0  0  0
   -8.1364    6.8967   48.1224 C   0  0  0  0  0  0  0  0  0  0  0  0
   -8.4929    8.0262   48.7381 N   0  0  0  0  0  0  0  0  0  0  0  0
   -8.6752    7.7692   50.0468 C   0  0  0  0  0  0  0  0  0  0  0  0
   -9.0426    8.5577   51.1282 C   0  0  0  0  0  0  0  0  0  0  0  0
   -9.1598    8.0273   52.4046 C   0  0  0  0  0  0  0  0  0  0  0  0
   -8.9099    6.7045   52.6058 C   0  0  0  0  0  0  0  0  0  0  0  0
   -9.0092    6.1216   53.8465 C   0  0  0  0  0  0  0  0  0  0  0  0
   -8.7481    4.7553   54.0378 C   0  0  0  0  0  0  0  0  0  0  0  0
   -8.8474    4.1854   55.2628 F   0  0  0  0  0  0  0  0  0  0  0  0
   -8.3902    4.0416   52.9195 C   0  0  0  0  0  0  0  0  0  0  0  0
   -8.2819    4.5822   51.6800 C   0  0  0  0  0  0  0  0  0  0  0  0
   -8.5468    5.9291   51.5322 C   0  0  0  0  0  0  0  0  0  0  0  0
   -8.4204    6.4296   50.2410 C   0  0  0  0  0  0  0  0  0  0  0  0
   -8.0904    5.9081   49.0469 N   0  0  0  0  0  0  0  0  0  0  0  0
   -9.5468    8.8969   53.4973 C   0  0  0  0  0  0  0  0  0  0  0  0
   -9.6882    8.5524   54.6856 O   0  0  0  0  0  0  0  0  0  0  0  0
   -9.7915   10.2735   53.2034 N   0  0  0  0  0  0  0  0  0  0  0  0
   -9.6787   10.7398   52.0277 C   0  0  0  0  0  0  0  0  0  0  0  0
   -9.2991    9.9914   50.8309 C   0  0  0  0  0  0  0  0  0  0  0  0
  1  2  1  0
  2  3  1  0
  2  4  1  0
  2  5  1  0
  5  6  2  0
  6  7  1  0
  7  8  2  0
  8  9  1  0
  9 10  2  0
 10 11  1  0
 11 12  2  0
 12 13  1  0
 12 14  1  0
 14 15  2  0
 15 16  1  0
 16 17  2  0
 17 18  1  0
  9 19  1  0
 19 20  2  0
 19 21  1  0
 21 22  2  0
 22 23  1  0
 18  5  1  0
 17  7  1  0
 23  8  1  0
 16 10  1  0
M  END
>  <shape_align_shape_tanimoto>  (2) 
0.68438656321374991

>  <shape_align_color_tanimoto>  (2) 
0.13286374787816713

>  <metric>  (2) 
color

>  <metric_score>  (2) 
0.133

>  <template_pid>  (2) 
3EYH

>  <template_shape_score>  (2) 
0.684

>  <template_color_score>  (2) 
0.133

>  <template_combo_score>  (2) 
0.409

$$$$
3EYH_combo_pose
     RDKit          3D

 23 26  0  0  0  0  0  0  0  0999 V2000
   -8.5692   12.5405   52.6836 C   0  0  0  0  0  0  0  0  0  0  0  0
   -9.8469   11.7982   52.3567 C   0  0  0  0  0  0  0  0  0  0  0  0
  -10.5148   12.3758   51.1182 C   0  0  0  0  0  0  0  0  0  0  0  0
  -10.7750   11.9430   53.5449 C   0  0  0  0  0  0  0  0  0  0  0  0
   -9.5187   10.3735   52.0841 C   0  0  0  0  0  0  0  0  0  0  0  0
   -9.2142    9.9093   50.8380 N   0  0  0  0  0  0  0  0  0  0  0  0
   -8.9642    8.5889   50.9025 C   0  0  0  0  0  0  0  0  0  0  0  0
   -8.6108    7.6177   49.9572 C   0  0  0  0  0  0  0  0  0  0  0  0
   -8.4092    6.3011   50.3010 C   0  0  0  0  0  0  0  0  0  0  0  0
   -8.5631    5.9459   51.6142 C   0  0  0  0  0  0  0  0  0  0  0  0
   -8.3759    4.6468   52.0226 C   0  0  0  0  0  0  0  0  0  0  0  0
   -8.5354    4.2906   53.3698 C   0  0  0  0  0  0  0  0  0  0  0  0
   -8.3548    3.0153   53.7887 F   0  0  0  0  0  0  0  0  0  0  0  0
   -8.8826    5.2871   54.2494 C   0  0  0  0  0  0  0  0  0  0  0  0
   -9.0776    6.5834   53.8904 C   0  0  0  0  0  0  0  0  0  0  0  0
   -8.9064    6.8891   52.5333 C   0  0  0  0  0  0  0  0  0  0  0  0
   -9.1190    8.2327   52.2222 C   0  0  0  0  0  0  0  0  0  0  0  0
   -9.4542    9.3279   52.9174 N   0  0  0  0  0  0  0  0  0  0  0  0
   -8.0440    5.3474   49.2666 C   0  0  0  0  0  0  0  0  0  0  0  0
   -7.8417    4.1441   49.4754 O   0  0  0  0  0  0  0  0  0  0  0  0
   -7.9044    5.7977   47.9274 N   0  0  0  0  0  0  0  0  0  0  0  0
   -8.0974    7.0191   47.6428 C   0  0  0  0  0  0  0  0  0  0  0  0
   -8.4694    8.1051   48.5646 C   0  0  0  0  0  0  0  0  0  0  0  0
  1  2  1  0
  2  3  1  0
  2  4  1  0
  2  5  1  0
  5  6  2  0
  6  7  1  0
  7  8  2  0
  8  9  1  0
  9 10  2  0
 10 11  1  0
 11 12  2  0
 12 13  1  0
 12 14  1  0
 14 15  2  0
 15 16  1  0
 16 17  2  0
 17 18  1  0
  9 19  1  0
 19 20  2  0
 19 21  1  0
 21 22  2  0
 22 23  1  0
 18  5  1  0
 17  7  1  0
 23  8  1  0
 16 10  1  0
M  END
>  <shape_align_shape_tanimoto>  (3) 
0.85464948375591099

>  <shape_align_color_tanimoto>  (3) 
0.06578798852938289

>  <metric>  (3) 
combo

>  <metric_score>  (3) 
0.460

>  <template_pid>  (3) 
3EYH

>  <template_shape_score>  (3) 
0.855

>  <template_color_score>  (3) 
0.066

>  <template_combo_score>  (3) 
0.460

$$$$
