5VRP_shape_pose
     RDKit          3D

 38 40  0  0  0  0  0  0  0  0999 V2000
  -18.2007   59.4439   36.1808 C   0  0  0  0  0  0  0  0  0  0  0  0
  -19.0041   60.2482   35.2167 C   0  0  0  0  0  0  0  0  0  0  0  0
  -19.7574   61.3655   35.8493 C   0  0  0  0  0  0  0  0  0  0  0  0
  -21.0477   61.1222   36.2997 C   0  0  0  0  0  0  0  0  0  0  0  0
  -21.7134   62.1630   36.8793 C   0  0  0  0  0  0  0  0  0  0  0  0
  -21.1109   63.3986   37.0030 C   0  0  0  0  0  0  0  0  0  0  0  0
  -19.8478   63.6820   36.5761 C   0  0  0  0  0  0  0  0  0  0  0  0
  -19.1229   64.9252   36.6172 C   0  0  0  0  0  0  0  0  0  0  0  0
  -19.3755   65.7611   35.5119 C   0  0  0  0  0  0  0  0  0  0  0  0
  -20.3297   65.4270   34.5905 F   0  0  0  0  0  0  0  0  0  0  0  0
  -18.6990   66.9256   35.3028 C   0  0  0  0  0  0  0  0  0  0  0  0
  -17.7432   67.2846   36.2087 C   0  0  0  0  0  0  0  0  0  0  0  0
  -17.4921   66.4492   37.3180 C   0  0  0  0  0  0  0  0  0  0  0  0
  -18.1381   65.2937   37.5570 C   0  0  0  0  0  0  0  0  0  0  0  0
  -18.0744   64.4645   38.8384 C   0  0  2  0  0  0  0  0  0  0  0  0
  -18.0880   63.1514   38.2697 O   0  0  0  0  0  0  0  0  0  0  0  0
  -19.2335   64.8077   39.5848 C   0  0  0  0  0  0  0  0  0  0  0  0
  -19.9317   64.3741   40.7789 C   0  0  0  0  0  0  0  0  0  0  0  0
  -20.6371   63.0664   40.8652 C   0  0  0  0  0  0  0  0  0  0  0  0
  -20.0157   61.8134   40.8492 N   0  0  0  0  0  0  0  0  0  0  0  0
  -19.1554   61.2389   41.8144 C   0  0  0  0  0  0  0  0  0  0  0  0
  -18.8836   61.8996   42.8543 O   0  0  0  0  0  0  0  0  0  0  0  0
  -18.6051   59.9880   41.6634 O   0  0  0  0  0  0  0  0  0  0  0  0
  -17.7508   59.4418   42.6539 C   0  0  0  0  0  0  0  0  0  0  0  0
  -16.7240   64.4931   39.4991 C   0  0  2  0  0  0  0  0  0  0  0  0
  -16.7354   63.6775   40.8024 C   0  0  0  0  0  0  0  0  0  0  0  0
  -16.5364   64.5330   42.0106 C   0  0  0  0  0  0  0  0  0  0  0  0
  -16.7229   65.9957   41.8686 C   0  0  0  0  0  0  0  0  0  0  0  0
  -16.1245   66.5785   40.6668 N   0  0  0  0  0  0  0  0  0  0  0  0
  -15.8448   67.9721   40.5600 C   0  0  0  0  0  0  0  0  0  0  0  0
  -15.3151   68.4641   39.4949 O   0  0  0  0  0  0  0  0  0  0  0  0
  -16.1348   68.9153   41.6282 C   0  0  0  0  0  0  0  0  0  0  0  0
  -15.1061   69.1778   42.6641 C   0  0  2  0  0  0  0  0  0  0  0  0
  -15.7297   70.1475   43.5269 O   0  0  0  0  0  0  0  0  0  0  0  0
  -13.7954   69.7255   42.2124 C   0  0  0  0  0  0  0  0  0  0  0  0
  -13.0067   68.8422   41.3825 N   0  0  0  0  0  0  0  0  0  0  0  0
  -15.8286   65.6136   39.6298 C   0  0  0  0  0  0  0  0  0  0  0  0
  -19.1698   62.5931   35.9768 C   0  0  0  0  0  0  0  0  0  0  0  0
  1  2  1  0
  2  3  1  0
  3  4  2  0
  4  5  1  0
  5  6  2  0
  6  7  1  0
  7  8  1  0
  8  9  2  0
  9 10  1  0
  9 11  1  0
 11 12  2  0
 12 13  1  0
 13 14  2  0
 14 15  1  0
 15 16  1  6
 15 17  1  0
 17 18  1  0
 18 19  1  0
 19 20  1  0
 20 21  1  0
 21 22  2  0
 21 23  1  0
 23 24  1  0
 15 25  1  0
 25 26  1  1
 26 27  1  0
 27 28  1  0
 28 29  1  0
 29 30  1  0
 30 31  2  0
 30 32  1  0
 32 33  1  0
 33 34  1  1
 33 35  1  0
 35 36  1  0
 29 37  1  0
  7 38  2  0
 38  3  1  0
 14  8  1  0
 37 25  1  0
M  CHG  1  36   1
M  END
>  <shape_align_shape_tanimoto>  (1) 
0.51671466222633844

>  <shape_align_color_tanimoto>  (1) 
0.036911554576921551

>  <metric>  (1) 
shape

>  <metric_score>  (1) 
0.517

>  <template_pid>  (1) 
5VRP

>  <template_shape_score>  (1) 
0.517

>  <template_color_score>  (1) 
0.037

>  <template_combo_score>  (1) 
0.277

$$$$
5VRP_color_pose
     RDKit          3D

 38 40  0  0  0  0  0  0  0  0999 V2000
  -17.4173   62.8868   43.2018 C   0  0  0  0  0  0  0  0  0  0  0  0
  -18.9227   62.9039   43.3715 C   0  0  0  0  0  0  0  0  0  0  0  0
  -19.5891   62.7684   42.0431 C   0  0  0  0  0  0  0  0  0  0  0  0
  -19.8656   61.4953   41.6060 C   0  0  0  0  0  0  0  0  0  0  0  0
  -20.4785   61.3734   40.3814 C   0  0  0  0  0  0  0  0  0  0  0  0
  -20.7940   62.4938   39.6400 C   0  0  0  0  0  0  0  0  0  0  0  0
  -20.5340   63.7835   40.0381 C   0  0  0  0  0  0  0  0  0  0  0  0
  -20.9312   64.9924   39.3590 C   0  0  0  0  0  0  0  0  0  0  0  0
  -22.2011   65.4358   39.8163 C   0  0  0  0  0  0  0  0  0  0  0  0
  -22.8904   64.7076   40.7415 F   0  0  0  0  0  0  0  0  0  0  0  0
  -22.7824   66.5740   39.3677 C   0  0  0  0  0  0  0  0  0  0  0  0
  -22.1100   67.3062   38.4451 C   0  0  0  0  0  0  0  0  0  0  0  0
  -20.9028   66.8904   38.0050 C   0  0  0  0  0  0  0  0  0  0  0  0
  -20.2198   65.7074   38.4226 C   0  0  0  0  0  0  0  0  0  0  0  0
  -18.9658   65.4177   37.8028 C   0  0  2  0  0  0  0  0  0  0  0  0
  -18.7731   66.6307   36.9337 O   0  0  0  0  0  0  0  0  0  0  0  0
  -18.8749   64.4458   36.6476 C   0  0  0  0  0  0  0  0  0  0  0  0
  -19.2662   63.0444   36.7728 C   0  0  0  0  0  0  0  0  0  0  0  0
  -19.0508   62.2466   35.4719 C   0  0  0  0  0  0  0  0  0  0  0  0
  -17.6852   62.2371   35.0426 N   0  0  0  0  0  0  0  0  0  0  0  0
  -16.6980   61.6904   35.9087 C   0  0  0  0  0  0  0  0  0  0  0  0
  -16.9927   61.2111   37.0521 O   0  0  0  0  0  0  0  0  0  0  0  0
  -15.3422   61.6383   35.5740 O   0  0  0  0  0  0  0  0  0  0  0  0
  -14.4697   61.0559   36.5491 C   0  0  0  0  0  0  0  0  0  0  0  0
  -17.6660   65.5375   38.5268 C   0  0  2  0  0  0  0  0  0  0  0  0
  -17.3035   64.7649   39.7086 C   0  0  0  0  0  0  0  0  0  0  0  0
  -15.7402   64.7297   39.7525 C   0  0  0  0  0  0  0  0  0  0  0  0
  -15.2081   66.1273   39.8837 C   0  0  0  0  0  0  0  0  0  0  0  0
  -16.3198   67.0539   39.8843 N   0  0  0  0  0  0  0  0  0  0  0  0
  -16.3545   68.0677   40.8824 C   0  0  0  0  0  0  0  0  0  0  0  0
  -17.2911   68.9254   40.9584 O   0  0  0  0  0  0  0  0  0  0  0  0
  -15.2829   68.1850   41.9082 C   0  0  0  0  0  0  0  0  0  0  0  0
  -15.5989   69.3591   42.8101 C   0  0  2  0  0  0  0  0  0  0  0  0
  -15.6544   70.5162   42.0713 O   0  0  0  0  0  0  0  0  0  0  0  0
  -14.6428   69.4484   43.9801 C   0  0  0  0  0  0  0  0  0  0  0  0
  -15.1130   70.5357   44.8321 N   0  0  0  0  0  0  0  0  0  0  0  0
  -17.4069   67.0245   38.9332 C   0  0  0  0  0  0  0  0  0  0  0  0
  -19.9057   63.8765   41.2990 C   0  0  0  0  0  0  0  0  0  0  0  0
  1  2  1  0
  2  3  1  0
  3  4  2  0
  4  5  1  0
  5  6  2  0
  6  7  1  0
  7  8  1  0
  8  9  2  0
  9 10  1  0
  9 11  1  0
 11 12  2  0
 12 13  1  0
 13 14  2  0
 14 15  1  0
 15 16  1  6
 15 17  1  0
 17 18  1  0
 18 19  1  0
 19 20  1  0
 20 21  1  0
 21 22  2  0
 21 23  1  0
 23 24  1  0
 15 25  1  0
 25 26  1  1
 26 27  1  0
 27 28  1  0
 28 29  1  0
 29 30  1  0
 30 31  2  0
 30 32  1  0
 32 33  1  0
 33 34  1  6
 33 35  1  0
 35 36  1  0
 29 37  1  0
  7 38  2  0
 38  3  1  0
 14  8  1  0
 37 25  1  0
M  CHG  1  36   1
M  END
>  <shape_align_shape_tanimoto>  (2) 
0.37849908565766061

>  <shape_align_color_tanimoto>  (2) 
0.079318051811757717

>  <metric>  (2) 
color

>  <metric_score>  (2) 
0.079

>  <template_pid>  (2) 
5VRP

>  <template_shape_score>  (2) 
0.378

>  <template_color_score>  (2) 
0.079

>  <template_combo_score>  (2) 
0.229

$$$$
5VRP_combo_pose
     RDKit          3D

 38 40  0  0  0  0  0  0  0  0999 V2000
  -18.6783   60.3727   43.8957 C   0  0  0  0  0  0  0  0  0  0  0  0
  -18.4916   60.4635   42.4137 C   0  0  0  0  0  0  0  0  0  0  0  0
  -19.3977   61.4528   41.7795 C   0  0  0  0  0  0  0  0  0  0  0  0
  -20.6380   61.0492   41.3326 C   0  0  0  0  0  0  0  0  0  0  0  0
  -21.4351   62.0124   40.7531 C   0  0  0  0  0  0  0  0  0  0  0  0
  -21.0301   63.3200   40.6177 C   0  0  0  0  0  0  0  0  0  0  0  0
  -19.7560   63.7427   41.0746 C   0  0  0  0  0  0  0  0  0  0  0  0
  -19.4901   65.1532   40.9278 C   0  0  0  0  0  0  0  0  0  0  0  0
  -19.8657   65.9060   42.0667 C   0  0  0  0  0  0  0  0  0  0  0  0
  -20.2868   65.2951   43.1996 F   0  0  0  0  0  0  0  0  0  0  0  0
  -19.8182   67.2723   42.0688 C   0  0  0  0  0  0  0  0  0  0  0  0
  -19.4027   67.9101   40.9569 C   0  0  0  0  0  0  0  0  0  0  0  0
  -19.0367   67.1866   39.8561 C   0  0  0  0  0  0  0  0  0  0  0  0
  -19.0557   65.7786   39.7758 C   0  0  0  0  0  0  0  0  0  0  0  0
  -18.5203   65.1380   38.5862 C   0  0  2  0  0  0  0  0  0  0  0  0
  -18.3865   66.2796   37.6524 O   0  0  0  0  0  0  0  0  0  0  0  0
  -19.3329   64.2475   37.7717 C   0  0  0  0  0  0  0  0  0  0  0  0
  -18.6269   63.6799   36.5603 C   0  0  0  0  0  0  0  0  0  0  0  0
  -19.6611   62.8269   35.7806 C   0  0  0  0  0  0  0  0  0  0  0  0
  -20.1716   61.7411   36.5597 N   0  0  0  0  0  0  0  0  0  0  0  0
  -21.1451   60.8876   35.9321 C   0  0  0  0  0  0  0  0  0  0  0  0
  -21.5085   61.1094   34.7608 O   0  0  0  0  0  0  0  0  0  0  0  0
  -21.6891   59.8165   36.6130 O   0  0  0  0  0  0  0  0  0  0  0  0
  -22.6481   58.9734   35.9997 C   0  0  0  0  0  0  0  0  0  0  0  0
  -17.0346   64.7980   38.6264 C   0  0  2  0  0  0  0  0  0  0  0  0
  -16.4716   63.9079   39.6184 C   0  0  0  0  0  0  0  0  0  0  0  0
  -15.9508   64.5264   40.9010 C   0  0  0  0  0  0  0  0  0  0  0  0
  -14.9678   65.6334   40.5818 C   0  0  0  0  0  0  0  0  0  0  0  0
  -15.5722   66.5733   39.6275 N   0  0  0  0  0  0  0  0  0  0  0  0
  -15.5907   67.9773   39.8569 C   0  0  0  0  0  0  0  0  0  0  0  0
  -16.1393   68.7483   38.9990 O   0  0  0  0  0  0  0  0  0  0  0  0
  -15.0075   68.6293   41.0462 C   0  0  0  0  0  0  0  0  0  0  0  0
  -16.0981   69.1588   41.9432 C   0  0  2  0  0  0  0  0  0  0  0  0
  -16.8822   70.0867   41.3009 O   0  0  0  0  0  0  0  0  0  0  0  0
  -15.5797   69.7307   43.2235 C   0  0  0  0  0  0  0  0  0  0  0  0
  -14.7329   68.7631   43.9412 N   0  0  0  0  0  0  0  0  0  0  0  0
  -16.1356   65.9992   38.4362 C   0  0  0  0  0  0  0  0  0  0  0  0
  -18.9930   62.7763   41.6405 C   0  0  0  0  0  0  0  0  0  0  0  0
  1  2  1  0
  2  3  1  0
  3  4  2  0
  4  5  1  0
  5  6  2  0
  6  7  1  0
  7  8  1  0
  8  9  2  0
  9 10  1  0
  9 11  1  0
 11 12  2  0
 12 13  1  0
 13 14  2  0
 14 15  1  0
 15 16  1  6
 15 17  1  0
 17 18  1  0
 18 19  1  0
 19 20  1  0
 20 21  1  0
 21 22  2  0
 21 23  1  0
 23 24  1  0
 15 25  1  0
 25 26  1  1
 26 27  1  0
 27 28  1  0
 28 29  1  0
 29 30  1  0
 30 31  2  0
 30 32  1  0
 32 33  1  0
 33 34  1  6
 33 35  1  0
 35 36  1  0
 29 37  1  0
  7 38  2  0
 38  3  1  0
 14  8  1  0
 37 25  1  0
M  CHG  1  36   1
M  END
>  <shape_align_shape_tanimoto>  (3) 
0.48806652324157923

>  <shape_align_color_tanimoto>  (3) 
0.071174715046326803

>  <metric>  (3) 
combo

>  <metric_score>  (3) 
0.280

>  <template_pid>  (3) 
5VRP

>  <template_shape_score>  (3) 
0.488

>  <template_color_score>  (3) 
0.071

>  <template_combo_score>  (3) 
0.280

$$$$
