5HV1_shape_pose
     RDKit          3D

 59 63  0  0  0  0  0  0  0  0999 V2000
   20.8374   12.6016    7.9683 C   0  0  0  0  0  0  0  0  0  0  0  0
   19.4663   12.4576    8.2680 O   0  0  0  0  0  0  0  0  0  0  0  0
   18.6784   12.7380    7.1560 C   0  0  1  0  0  0  0  0  0  0  0  0
   17.9715   11.4463    6.8370 C   0  0  0  0  0  0  0  0  0  0  0  0
   17.1867   10.9213    7.7530 C   0  0  0  0  0  0  0  0  0  0  0  0
   16.4815    9.7243    7.5669 O   0  0  0  0  0  0  0  0  0  0  0  0
   16.7003    8.6501    8.4610 C   0  0  1  0  0  0  0  0  0  0  0  0
   17.0359    7.3630    7.7763 C   0  0  0  0  0  0  0  0  0  0  0  0
   17.7239    8.9666    9.3966 O   0  0  0  0  0  0  0  0  0  0  0  0
   17.1085    9.5981   10.5068 C   0  0  0  0  0  0  0  0  0  0  0  0
   15.8288    9.3518   10.5028 C   0  0  0  0  0  0  0  0  0  0  0  0
   15.5597    8.4420    9.4077 C   0  0  0  0  0  0  0  0  0  0  0  0
   14.6295    7.6316    9.1996 O   0  0  0  0  0  0  0  0  0  0  0  0
   14.8544    9.8979   11.4172 C   0  0  0  0  0  0  0  0  0  0  0  0
   15.3341   10.7391   12.3532 C   0  0  0  0  0  0  0  0  0  0  0  0
   16.7550   10.7331   12.5809 C   0  0  0  0  0  0  0  0  0  0  0  0
   17.1523   11.0145   13.7617 O   0  0  0  0  0  0  0  0  0  0  0  0
   17.7752   10.4254   11.5455 C   0  0  0  0  0  0  0  0  0  0  0  0
   18.8587    9.5504   12.1660 C   0  0  0  0  0  0  0  0  0  0  0  0
   14.4049   11.6225   13.0983 C   0  0  0  0  0  0  0  0  0  0  0  0
   14.9152   12.4712   14.0458 O   0  0  0  0  0  0  0  0  0  0  0  0
   13.1370   11.5074   12.7714 C   0  0  0  0  0  0  0  0  0  0  0  0
   12.2271   12.5876   12.6148 N   0  0  0  0  0  0  0  0  0  0  0  0
   11.9873   13.0005   11.2482 C   0  0  0  0  0  0  0  0  0  0  0  0
   12.6289   12.3442   10.4017 O   0  0  0  0  0  0  0  0  0  0  0  0
   11.0660   14.0858   10.9965 C   0  0  0  0  0  0  0  0  0  0  0  0
   10.4078   14.7312   12.1682 C   0  0  0  0  0  0  0  0  0  0  0  0
   10.7573   14.5563    9.8074 C   0  0  0  0  0  0  0  0  0  0  0  0
   11.3360   14.0137    8.5654 C   0  0  0  0  0  0  0  0  0  0  0  0
   10.9889   14.5131    7.4118 C   0  0  0  0  0  0  0  0  0  0  0  0
   11.4171   14.1580    6.0666 C   0  0  2  0  0  0  0  0  0  0  0  0
   10.1591   13.6412    5.3129 C   0  0  0  0  0  0  0  0  0  0  0  0
   12.4713   13.1443    5.9385 C   0  0  2  0  0  0  0  0  0  0  0  0
   12.3340   12.0200    6.6681 O   0  0  0  0  0  0  0  0  0  0  0  0
   13.8810   13.6257    5.7206 C   0  0  1  0  0  0  0  0  0  0  0  0
   13.9077   14.4564    4.4199 C   0  0  0  0  0  0  0  0  0  0  0  0
   14.4079   14.5012    6.7811 C   0  0  1  0  0  0  0  0  0  0  0  0
   14.4887   13.8472    8.0181 O   0  0  0  0  0  0  0  0  0  0  0  0
   15.7442   15.1388    6.4495 C   0  0  1  0  0  0  0  0  0  0  0  0
   15.9594   16.1669    7.5548 C   0  0  0  0  0  0  0  0  0  0  0  0
   16.9083   14.2554    6.3613 C   0  0  2  0  0  0  0  0  0  0  0  0
   16.8141   13.1896    5.4197 O   0  0  0  0  0  0  0  0  0  0  0  0
   17.5344   13.1777    4.2305 C   0  0  0  0  0  0  0  0  0  0  0  0
   17.3958   12.0307    3.2786 C   0  0  0  0  0  0  0  0  0  0  0  0
   18.3148   14.1075    3.9109 O   0  0  0  0  0  0  0  0  0  0  0  0
   17.6408   13.7976    7.5600 C   0  0  2  0  0  0  0  0  0  0  0  0
   18.4575   14.8332    8.2929 C   0  0  0  0  0  0  0  0  0  0  0  0
   12.6156   10.1344   12.5398 C   0  0  0  0  0  0  0  0  0  0  0  0
   12.8514    9.3338   13.7928 C   0  0  0  0  0  0  0  0  0  0  0  0
   12.1715    9.9144   14.9319 N   0  0  0  0  0  0  0  0  0  0  0  0
   12.9972   10.2645   15.9797 N   0  0  1  0  0  0  0  0  0  0  0  0
   12.7043   11.5801   16.5150 C   0  0  0  0  0  0  0  0  0  0  0  0
   11.3142   11.6708   17.1049 C   0  0  0  0  0  0  0  0  0  0  0  0
   11.1704   10.6780   18.1246 N   0  0  2  0  0  0  0  0  0  0  0  0
   10.8674   11.3647   19.3754 C   0  0  0  0  0  0  0  0  0  0  0  0
   12.3781    9.9148   18.3478 C   0  0  0  0  0  0  0  0  0  0  0  0
   12.9421    9.3267   17.0880 C   0  0  0  0  0  0  0  0  0  0  0  0
   13.4352    9.6080   11.3974 C   0  0  0  0  0  0  0  0  0  0  0  0
   12.8339    8.9674   10.5273 O   0  0  0  0  0  0  0  0  0  0  0  0
  1  2  1  0
  3  2  1  1
  3  4  1  0
  4  5  2  0
  5  6  1  0
  6  7  1  0
  7  8  1  6
  7  9  1  0
  9 10  1  0
 10 11  2  0
 11 12  1  0
 12 13  2  0
 11 14  1  0
 14 15  2  0
 15 16  1  0
 16 17  2  0
 16 18  1  0
 18 19  1  0
 15 20  1  0
 20 21  1  0
 20 22  2  0
 22 23  1  0
 23 24  1  0
 24 25  2  0
 24 26  1  0
 26 27  1  0
 26 28  2  0
 28 29  1  0
 29 30  2  0
 30 31  1  0
 31 32  1  6
 31 33  1  0
 33 34  1  1
 33 35  1  0
 35 36  1  6
 35 37  1  0
 37 38  1  1
 37 39  1  0
 39 40  1  1
 39 41  1  0
 41 42  1  1
 42 43  1  0
 43 44  1  0
 43 45  2  0
 41 46  1  0
 46 47  1  6
 22 48  1  0
 48 49  1  0
 49 50  1  0
 51 50  1  6
 51 52  1  0
 52 53  1  0
 53 54  1  0
 54 55  1  1
 54 56  1  0
 56 57  1  0
 48 58  1  0
 58 59  2  0
 46  3  1  0
 57 51  1  0
 12  7  1  0
 58 14  1  0
 18 10  1  0
M  CHG  3  50   1  51   1  54   1
M  END
>  <shape_align_shape_tanimoto>  (1) 
0.37828197737044961

>  <shape_align_color_tanimoto>  (1) 
0.032920133509795009

>  <metric>  (1) 
shape

>  <metric_score>  (1) 
0.378

>  <template_pid>  (1) 
5HV1

>  <template_shape_score>  (1) 
0.378

>  <template_color_score>  (1) 
0.033

>  <template_combo_score>  (1) 
0.206

$$$$
5HV1_color_pose
     RDKit          3D

 59 63  0  0  0  0  0  0  0  0999 V2000
   15.3863    2.6849   11.7063 C   0  0  0  0  0  0  0  0  0  0  0  0
   14.5000    3.1843   10.7944 O   0  0  0  0  0  0  0  0  0  0  0  0
   14.0270    4.4677   11.0525 C   0  0  1  0  0  0  0  0  0  0  0  0
   14.6892    5.3399   10.0398 C   0  0  0  0  0  0  0  0  0  0  0  0
   15.5771    6.2637   10.3491 C   0  0  0  0  0  0  0  0  0  0  0  0
   16.1660    7.0499    9.3741 O   0  0  0  0  0  0  0  0  0  0  0  0
   17.0184    8.1248    9.5515 C   0  0  1  0  0  0  0  0  0  0  0  0
   18.4944    7.7565    9.5916 C   0  0  0  0  0  0  0  0  0  0  0  0
   16.8756    9.1467    8.6108 O   0  0  0  0  0  0  0  0  0  0  0  0
   16.2808   10.2553    9.1934 C   0  0  0  0  0  0  0  0  0  0  0  0
   15.9337    9.9784   10.4370 C   0  0  0  0  0  0  0  0  0  0  0  0
   16.7312    8.8637   10.8445 C   0  0  0  0  0  0  0  0  0  0  0  0
   17.1614    8.4683   11.9439 O   0  0  0  0  0  0  0  0  0  0  0  0
   14.9275   10.6937   11.1395 C   0  0  0  0  0  0  0  0  0  0  0  0
   14.3289   11.6936   10.4459 C   0  0  0  0  0  0  0  0  0  0  0  0
   15.0393   12.3636    9.3774 C   0  0  0  0  0  0  0  0  0  0  0  0
   14.7708   13.5728    9.1780 O   0  0  0  0  0  0  0  0  0  0  0  0
   16.0305   11.5904    8.5901 C   0  0  0  0  0  0  0  0  0  0  0  0
   15.5524   11.4995    7.1735 C   0  0  0  0  0  0  0  0  0  0  0  0
   12.9354   12.0349   10.8261 C   0  0  0  0  0  0  0  0  0  0  0  0
   12.3406   13.0436   10.1248 O   0  0  0  0  0  0  0  0  0  0  0  0
   12.4502   11.3113   11.8022 C   0  0  0  0  0  0  0  0  0  0  0  0
   11.1992   10.5660   11.7342 N   0  0  0  0  0  0  0  0  0  0  0  0
   10.0242   11.2404   11.4991 C   0  0  0  0  0  0  0  0  0  0  0  0
   10.2406   12.5362   11.3711 O   0  0  0  0  0  0  0  0  0  0  0  0
    8.6407   10.9563   11.3558 C   0  0  0  0  0  0  0  0  0  0  0  0
    7.7796   12.2089   10.9917 C   0  0  0  0  0  0  0  0  0  0  0  0
    7.9480    9.8914   11.4548 C   0  0  0  0  0  0  0  0  0  0  0  0
    8.2020    8.5307   11.7545 C   0  0  0  0  0  0  0  0  0  0  0  0
    9.1677    7.7581   12.0703 C   0  0  0  0  0  0  0  0  0  0  0  0
    9.0090    6.2510   12.3167 C   0  0  2  0  0  0  0  0  0  0  0  0
    7.5955    5.8962   11.9605 C   0  0  0  0  0  0  0  0  0  0  0  0
    9.3270    5.8868   13.6937 C   0  0  2  0  0  0  0  0  0  0  0  0
    8.3658    6.6158   14.4826 O   0  0  0  0  0  0  0  0  0  0  0  0
   10.6071    6.0378   14.3416 C   0  0  1  0  0  0  0  0  0  0  0  0
   10.4005    5.5748   15.8256 C   0  0  0  0  0  0  0  0  0  0  0  0
   11.8909    5.5659   13.8790 C   0  0  1  0  0  0  0  0  0  0  0  0
   12.8319    5.9643   14.8700 O   0  0  0  0  0  0  0  0  0  0  0  0
   12.2038    4.1861   13.5195 C   0  0  1  0  0  0  0  0  0  0  0  0
   11.9341    3.0845   14.4839 C   0  0  0  0  0  0  0  0  0  0  0  0
   11.8621    3.7430   12.1215 C   0  0  2  0  0  0  0  0  0  0  0  0
   12.1920    2.3694   11.9473 O   0  0  0  0  0  0  0  0  0  0  0  0
   11.2045    1.4150   11.6491 C   0  0  0  0  0  0  0  0  0  0  0  0
   11.5469   -0.0227   11.4663 C   0  0  0  0  0  0  0  0  0  0  0  0
    9.9859    1.7818   11.5311 O   0  0  0  0  0  0  0  0  0  0  0  0
   12.5386    4.5519   11.0531 C   0  0  2  0  0  0  0  0  0  0  0  0
   12.0411    3.9762    9.7410 C   0  0  0  0  0  0  0  0  0  0  0  0
   13.3108   11.2274   13.0399 C   0  0  0  0  0  0  0  0  0  0  0  0
   12.5456   10.4832   14.0774 C   0  0  0  0  0  0  0  0  0  0  0  0
   13.3389   10.3774   15.2952 N   0  0  0  0  0  0  0  0  0  0  0  0
   12.5721   10.2966   16.4333 N   0  0  1  0  0  0  0  0  0  0  0  0
   12.9124   11.4082   17.3363 C   0  0  0  0  0  0  0  0  0  0  0  0
   11.8834   11.6154   18.4053 C   0  0  0  0  0  0  0  0  0  0  0  0
   11.1880   10.3819   18.7178 N   0  0  2  0  0  0  0  0  0  0  0  0
   12.0770    9.4480   19.3742 C   0  0  0  0  0  0  0  0  0  0  0  0
   10.5324    9.8516   17.5569 C   0  0  0  0  0  0  0  0  0  0  0  0
   11.1533   10.3602   16.2465 C   0  0  0  0  0  0  0  0  0  0  0  0
   14.5077   10.4502   12.5209 C   0  0  0  0  0  0  0  0  0  0  0  0
   15.1263    9.6346   13.2140 O   0  0  0  0  0  0  0  0  0  0  0  0
  1  2  1  0
  3  2  1  6
  3  4  1  0
  4  5  2  0
  5  6  1  0
  6  7  1  0
  7  8  1  1
  7  9  1  0
  9 10  1  0
 10 11  2  0
 11 12  1  0
 12 13  2  0
 11 14  1  0
 14 15  2  0
 15 16  1  0
 16 17  2  0
 16 18  1  0
 18 19  1  0
 15 20  1  0
 20 21  1  0
 20 22  2  0
 22 23  1  0
 23 24  1  0
 24 25  2  0
 24 26  1  0
 26 27  1  0
 26 28  2  0
 28 29  1  0
 29 30  2  0
 30 31  1  0
 31 32  1  1
 31 33  1  0
 33 34  1  1
 33 35  1  0
 35 36  1  1
 35 37  1  0
 37 38  1  1
 37 39  1  0
 39 40  1  1
 39 41  1  0
 41 42  1  1
 42 43  1  0
 43 44  1  0
 43 45  2  0
 41 46  1  0
 46 47  1  6
 22 48  1  0
 48 49  1  0
 49 50  1  0
 51 50  1  6
 51 52  1  0
 52 53  1  0
 53 54  1  0
 54 55  1  6
 54 56  1  0
 56 57  1  0
 48 58  1  0
 58 59  2  0
 46  3  1  0
 57 51  1  0
 12  7  1  0
 58 14  1  0
 18 10  1  0
M  CHG  3  50   1  51   1  54   1
M  END
>  <shape_align_shape_tanimoto>  (2) 
0.35371624399014079

>  <shape_align_color_tanimoto>  (2) 
0.087870041174541766

>  <metric>  (2) 
color

>  <metric_score>  (2) 
0.088

>  <template_pid>  (2) 
5HV1

>  <template_shape_score>  (2) 
0.354

>  <template_color_score>  (2) 
0.088

>  <template_combo_score>  (2) 
0.221

$$$$
5HV1_combo_pose
     RDKit          3D

 59 63  0  0  0  0  0  0  0  0999 V2000
   15.3863    2.6849   11.7063 C   0  0  0  0  0  0  0  0  0  0  0  0
   14.5000    3.1843   10.7944 O   0  0  0  0  0  0  0  0  0  0  0  0
   14.0270    4.4677   11.0525 C   0  0  1  0  0  0  0  0  0  0  0  0
   14.6892    5.3399   10.0398 C   0  0  0  0  0  0  0  0  0  0  0  0
   15.5771    6.2637   10.3491 C   0  0  0  0  0  0  0  0  0  0  0  0
   16.1660    7.0499    9.3741 O   0  0  0  0  0  0  0  0  0  0  0  0
   17.0184    8.1248    9.5515 C   0  0  1  0  0  0  0  0  0  0  0  0
   18.4944    7.7565    9.5916 C   0  0  0  0  0  0  0  0  0  0  0  0
   16.8756    9.1467    8.6108 O   0  0  0  0  0  0  0  0  0  0  0  0
   16.2808   10.2553    9.1934 C   0  0  0  0  0  0  0  0  0  0  0  0
   15.9337    9.9784   10.4370 C   0  0  0  0  0  0  0  0  0  0  0  0
   16.7312    8.8637   10.8445 C   0  0  0  0  0  0  0  0  0  0  0  0
   17.1614    8.4683   11.9439 O   0  0  0  0  0  0  0  0  0  0  0  0
   14.9275   10.6937   11.1395 C   0  0  0  0  0  0  0  0  0  0  0  0
   14.3289   11.6936   10.4459 C   0  0  0  0  0  0  0  0  0  0  0  0
   15.0393   12.3636    9.3774 C   0  0  0  0  0  0  0  0  0  0  0  0
   14.7708   13.5728    9.1780 O   0  0  0  0  0  0  0  0  0  0  0  0
   16.0305   11.5904    8.5901 C   0  0  0  0  0  0  0  0  0  0  0  0
   15.5524   11.4995    7.1735 C   0  0  0  0  0  0  0  0  0  0  0  0
   12.9354   12.0349   10.8261 C   0  0  0  0  0  0  0  0  0  0  0  0
   12.3406   13.0436   10.1248 O   0  0  0  0  0  0  0  0  0  0  0  0
   12.4502   11.3113   11.8022 C   0  0  0  0  0  0  0  0  0  0  0  0
   11.1992   10.5660   11.7342 N   0  0  0  0  0  0  0  0  0  0  0  0
   10.0242   11.2404   11.4991 C   0  0  0  0  0  0  0  0  0  0  0  0
   10.2406   12.5362   11.3711 O   0  0  0  0  0  0  0  0  0  0  0  0
    8.6407   10.9563   11.3558 C   0  0  0  0  0  0  0  0  0  0  0  0
    7.7796   12.2089   10.9917 C   0  0  0  0  0  0  0  0  0  0  0  0
    7.9480    9.8914   11.4548 C   0  0  0  0  0  0  0  0  0  0  0  0
    8.2020    8.5307   11.7545 C   0  0  0  0  0  0  0  0  0  0  0  0
    9.1677    7.7581   12.0703 C   0  0  0  0  0  0  0  0  0  0  0  0
    9.0090    6.2510   12.3167 C   0  0  2  0  0  0  0  0  0  0  0  0
    7.5955    5.8962   11.9605 C   0  0  0  0  0  0  0  0  0  0  0  0
    9.3270    5.8868   13.6937 C   0  0  2  0  0  0  0  0  0  0  0  0
    8.3658    6.6158   14.4826 O   0  0  0  0  0  0  0  0  0  0  0  0
   10.6071    6.0378   14.3416 C   0  0  1  0  0  0  0  0  0  0  0  0
   10.4005    5.5748   15.8256 C   0  0  0  0  0  0  0  0  0  0  0  0
   11.8909    5.5659   13.8790 C   0  0  1  0  0  0  0  0  0  0  0  0
   12.8319    5.9643   14.8700 O   0  0  0  0  0  0  0  0  0  0  0  0
   12.2038    4.1861   13.5195 C   0  0  1  0  0  0  0  0  0  0  0  0
   11.9341    3.0845   14.4839 C   0  0  0  0  0  0  0  0  0  0  0  0
   11.8621    3.7430   12.1215 C   0  0  2  0  0  0  0  0  0  0  0  0
   12.1920    2.3694   11.9473 O   0  0  0  0  0  0  0  0  0  0  0  0
   11.2045    1.4150   11.6491 C   0  0  0  0  0  0  0  0  0  0  0  0
   11.5469   -0.0227   11.4663 C   0  0  0  0  0  0  0  0  0  0  0  0
    9.9859    1.7818   11.5311 O   0  0  0  0  0  0  0  0  0  0  0  0
   12.5386    4.5519   11.0531 C   0  0  2  0  0  0  0  0  0  0  0  0
   12.0411    3.9762    9.7410 C   0  0  0  0  0  0  0  0  0  0  0  0
   13.3108   11.2274   13.0399 C   0  0  0  0  0  0  0  0  0  0  0  0
   12.5456   10.4832   14.0774 C   0  0  0  0  0  0  0  0  0  0  0  0
   13.3389   10.3774   15.2952 N   0  0  0  0  0  0  0  0  0  0  0  0
   12.5721   10.2966   16.4333 N   0  0  1  0  0  0  0  0  0  0  0  0
   12.9124   11.4082   17.3363 C   0  0  0  0  0  0  0  0  0  0  0  0
   11.8834   11.6154   18.4053 C   0  0  0  0  0  0  0  0  0  0  0  0
   11.1880   10.3819   18.7178 N   0  0  2  0  0  0  0  0  0  0  0  0
   12.0770    9.4480   19.3742 C   0  0  0  0  0  0  0  0  0  0  0  0
   10.5324    9.8516   17.5569 C   0  0  0  0  0  0  0  0  0  0  0  0
   11.1533   10.3602   16.2465 C   0  0  0  0  0  0  0  0  0  0  0  0
   14.5077   10.4502   12.5209 C   0  0  0  0  0  0  0  0  0  0  0  0
   15.1263    9.6346   13.2140 O   0  0  0  0  0  0  0  0  0  0  0  0
  1  2  1  0
  3  2  1  6
  3  4  1  0
  4  5  2  0
  5  6  1  0
  6  7  1  0
  7  8  1  1
  7  9  1  0
  9 10  1  0
 10 11  2  0
 11 12  1  0
 12 13  2  0
 11 14  1  0
 14 15  2  0
 15 16  1  0
 16 17  2  0
 16 18  1  0
 18 19  1  0
 15 20  1  0
 20 21  1  0
 20 22  2  0
 22 23  1  0
 23 24  1  0
 24 25  2  0
 24 26  1  0
 26 27  1  0
 26 28  2  0
 28 29  1  0
 29 30  2  0
 30 31  1  0
 31 32  1  1
 31 33  1  0
 33 34  1  1
 33 35  1  0
 35 36  1  1
 35 37  1  0
 37 38  1  1
 37 39  1  0
 39 40  1  1
 39 41  1  0
 41 42  1  1
 42 43  1  0
 43 44  1  0
 43 45  2  0
 41 46  1  0
 46 47  1  6
 22 48  1  0
 48 49  1  0
 49 50  1  0
 51 50  1  6
 51 52  1  0
 52 53  1  0
 53 54  1  0
 54 55  1  6
 54 56  1  0
 56 57  1  0
 48 58  1  0
 58 59  2  0
 46  3  1  0
 57 51  1  0
 12  7  1  0
 58 14  1  0
 18 10  1  0
M  CHG  3  50   1  51   1  54   1
M  END
>  <shape_align_shape_tanimoto>  (3) 
0.35371624399014079

>  <shape_align_color_tanimoto>  (3) 
0.087870041174541766

>  <metric>  (3) 
combo

>  <metric_score>  (3) 
0.221

>  <template_pid>  (3) 
5HV1

>  <template_shape_score>  (3) 
0.354

>  <template_color_score>  (3) 
0.088

>  <template_combo_score>  (3) 
0.221

$$$$
