4F49_shape_pose
     RDKit          3D

 29 30  0  0  0  0  0  0  0  0999 V2000
  -15.9218  -10.7549  -58.8839 C   0  0  0  0  0  0  0  0  0  0  0  0
  -16.5878   -9.4117  -59.0828 C   0  0  0  0  0  0  0  0  0  0  0  0
  -15.8127   -8.4541  -58.1500 C   0  0  0  0  0  0  0  0  0  0  0  0
  -16.4211   -8.8615  -60.4450 C   0  0  0  0  0  0  0  0  0  0  0  0
  -16.9608   -9.6551  -61.5945 C   0  0  2  0  0  0  0  0  0  0  0  0
  -16.6229   -8.8657  -62.7847 N   0  0  0  0  0  0  0  0  0  0  0  0
  -17.2319   -7.5755  -63.0219 C   0  0  0  0  0  0  0  0  0  0  0  0
  -18.0629   -7.1095  -62.2106 O   0  0  0  0  0  0  0  0  0  0  0  0
  -16.8397   -6.9269  -64.1659 O   0  0  0  0  0  0  0  0  0  0  0  0
  -17.3491   -5.6725  -64.5147 C   0  0  0  0  0  0  0  0  0  0  0  0
  -17.0832   -4.6032  -63.5343 C   0  0  0  0  0  0  0  0  0  0  0  0
  -17.9553   -4.1815  -62.5658 C   0  0  0  0  0  0  0  0  0  0  0  0
  -17.6457   -3.1765  -61.6507 C   0  0  0  0  0  0  0  0  0  0  0  0
  -16.4002   -2.5768  -61.7248 C   0  0  0  0  0  0  0  0  0  0  0  0
  -15.4930   -2.9842  -62.6993 C   0  0  0  0  0  0  0  0  0  0  0  0
  -15.8315   -3.9893  -63.5970 C   0  0  0  0  0  0  0  0  0  0  0  0
  -18.3803   -9.9793  -61.5620 C   0  0  0  0  0  0  0  0  0  0  0  0
  -19.1173   -9.4749  -62.4815 O   0  0  0  0  0  0  0  0  0  0  0  0
  -19.0473  -10.7973  -60.6241 N   0  0  0  0  0  0  0  0  0  0  0  0
  -20.4552  -11.0036  -60.7452 C   0  0  2  0  0  0  0  0  0  0  0  0
  -21.1657  -10.4924  -59.4699 C   0  0  0  0  0  0  0  0  0  0  0  0
  -20.8857   -9.1324  -59.3438 O   0  0  0  0  0  0  0  0  0  0  0  0
  -20.7942  -12.4379  -60.9723 C   0  0  0  0  0  0  0  0  0  0  0  0
  -20.2258  -12.9952  -62.2070 C   0  0  2  0  0  0  0  0  0  0  0  0
  -20.7033  -14.4792  -62.3956 C   0  0  0  0  0  0  0  0  0  0  0  0
  -19.9439  -14.7711  -63.6821 C   0  0  0  0  0  0  0  0  0  0  0  0
  -18.6534  -14.1013  -63.4629 N   0  0  0  0  0  0  0  0  0  0  0  0
  -18.7848  -13.3136  -62.2393 C   0  0  0  0  0  0  0  0  0  0  0  0
  -17.7979  -13.0840  -61.5370 O   0  0  0  0  0  0  0  0  0  0  0  0
  1  2  1  0
  2  3  1  0
  2  4  1  0
  5  4  1  1
  5  6  1  0
  6  7  1  0
  7  8  2  0
  7  9  1  0
  9 10  1  0
 10 11  1  0
 11 12  2  0
 12 13  1  0
 13 14  2  0
 14 15  1  0
 15 16  2  0
  5 17  1  0
 17 18  2  0
 17 19  1  0
 19 20  1  0
 20 21  1  1
 21 22  1  0
 20 23  1  0
 24 23  1  1
 24 25  1  0
 25 26  1  0
 26 27  1  0
 27 28  1  0
 28 29  2  0
 16 11  1  0
 28 24  1  0
M  END
>  <shape_align_shape_tanimoto>  (1) 
0.59492502047052509

>  <shape_align_color_tanimoto>  (1) 
0.057703350457021518

>  <metric>  (1) 
shape

>  <metric_score>  (1) 
0.595

>  <template_pid>  (1) 
4F49

>  <template_shape_score>  (1) 
0.595

>  <template_color_score>  (1) 
0.058

>  <template_combo_score>  (1) 
0.326

$$$$
4F49_color_pose
     RDKit          3D

 29 30  0  0  0  0  0  0  0  0999 V2000
  -18.2310  -11.2673  -57.2557 C   0  0  0  0  0  0  0  0  0  0  0  0
  -16.9394  -10.7747  -57.8594 C   0  0  0  0  0  0  0  0  0  0  0  0
  -16.0804  -10.2881  -56.7090 C   0  0  0  0  0  0  0  0  0  0  0  0
  -17.1846   -9.6066  -58.7604 C   0  0  0  0  0  0  0  0  0  0  0  0
  -18.0994   -9.8854  -59.9154 C   0  0  2  0  0  0  0  0  0  0  0  0
  -17.5693  -10.9439  -60.7788 N   0  0  0  0  0  0  0  0  0  0  0  0
  -18.4086  -12.0760  -61.0670 C   0  0  0  0  0  0  0  0  0  0  0  0
  -19.5407  -12.0717  -60.5537 O   0  0  0  0  0  0  0  0  0  0  0  0
  -17.8955  -13.0484  -61.8715 O   0  0  0  0  0  0  0  0  0  0  0  0
  -18.5895  -14.2021  -62.2399 C   0  0  0  0  0  0  0  0  0  0  0  0
  -19.8387  -13.9445  -62.9839 C   0  0  0  0  0  0  0  0  0  0  0  0
  -21.0863  -13.8644  -62.4231 C   0  0  0  0  0  0  0  0  0  0  0  0
  -22.2246  -13.6084  -63.1661 C   0  0  0  0  0  0  0  0  0  0  0  0
  -22.1484  -13.4200  -64.5279 C   0  0  0  0  0  0  0  0  0  0  0  0
  -20.8895  -13.4995  -65.1054 C   0  0  0  0  0  0  0  0  0  0  0  0
  -19.7559  -13.7551  -64.3604 C   0  0  0  0  0  0  0  0  0  0  0  0
  -18.0796   -8.6369  -60.7583 C   0  0  0  0  0  0  0  0  0  0  0  0
  -18.5003   -7.5986  -60.1995 O   0  0  0  0  0  0  0  0  0  0  0  0
  -17.6315   -8.5954  -62.0754 N   0  0  0  0  0  0  0  0  0  0  0  0
  -17.6527   -7.3512  -62.7980 C   0  0  2  0  0  0  0  0  0  0  0  0
  -18.7323   -7.5435  -63.8530 C   0  0  0  0  0  0  0  0  0  0  0  0
  -19.9701   -7.8062  -63.2765 O   0  0  0  0  0  0  0  0  0  0  0  0
  -16.3838   -6.9493  -63.4583 C   0  0  0  0  0  0  0  0  0  0  0  0
  -16.3949   -5.6612  -64.2097 C   0  0  2  0  0  0  0  0  0  0  0  0
  -14.9988   -5.4646  -64.7919 C   0  0  0  0  0  0  0  0  0  0  0  0
  -14.3993   -4.2817  -64.0670 C   0  0  0  0  0  0  0  0  0  0  0  0
  -15.5912   -3.5326  -63.6982 N   0  0  0  0  0  0  0  0  0  0  0  0
  -16.6579   -4.4572  -63.4440 C   0  0  0  0  0  0  0  0  0  0  0  0
  -17.6119   -4.1941  -62.6816 O   0  0  0  0  0  0  0  0  0  0  0  0
  1  2  1  0
  2  3  1  0
  2  4  1  0
  5  4  1  1
  5  6  1  0
  6  7  1  0
  7  8  2  0
  7  9  1  0
  9 10  1  0
 10 11  1  0
 11 12  2  0
 12 13  1  0
 13 14  2  0
 14 15  1  0
 15 16  2  0
  5 17  1  0
 17 18  2  0
 17 19  1  0
 19 20  1  0
 20 21  1  6
 21 22  1  0
 20 23  1  0
 24 23  1  1
 24 25  1  0
 25 26  1  0
 26 27  1  0
 27 28  1  0
 28 29  2  0
 16 11  1  0
 28 24  1  0
M  END
>  <shape_align_shape_tanimoto>  (2) 
0.48138761504753674

>  <shape_align_color_tanimoto>  (2) 
0.10113055475730275

>  <metric>  (2) 
color

>  <metric_score>  (2) 
0.101

>  <template_pid>  (2) 
4F49

>  <template_shape_score>  (2) 
0.481

>  <template_color_score>  (2) 
0.101

>  <template_combo_score>  (2) 
0.291

$$$$
4F49_combo_pose
     RDKit          3D

 29 30  0  0  0  0  0  0  0  0999 V2000
  -15.9218  -10.7549  -58.8839 C   0  0  0  0  0  0  0  0  0  0  0  0
  -16.5878   -9.4117  -59.0828 C   0  0  0  0  0  0  0  0  0  0  0  0
  -15.8127   -8.4541  -58.1500 C   0  0  0  0  0  0  0  0  0  0  0  0
  -16.4211   -8.8615  -60.4450 C   0  0  0  0  0  0  0  0  0  0  0  0
  -16.9608   -9.6551  -61.5945 C   0  0  2  0  0  0  0  0  0  0  0  0
  -16.6229   -8.8657  -62.7847 N   0  0  0  0  0  0  0  0  0  0  0  0
  -17.2319   -7.5755  -63.0219 C   0  0  0  0  0  0  0  0  0  0  0  0
  -18.0629   -7.1095  -62.2106 O   0  0  0  0  0  0  0  0  0  0  0  0
  -16.8397   -6.9269  -64.1659 O   0  0  0  0  0  0  0  0  0  0  0  0
  -17.3491   -5.6725  -64.5147 C   0  0  0  0  0  0  0  0  0  0  0  0
  -17.0832   -4.6032  -63.5343 C   0  0  0  0  0  0  0  0  0  0  0  0
  -17.9553   -4.1815  -62.5658 C   0  0  0  0  0  0  0  0  0  0  0  0
  -17.6457   -3.1765  -61.6507 C   0  0  0  0  0  0  0  0  0  0  0  0
  -16.4002   -2.5768  -61.7248 C   0  0  0  0  0  0  0  0  0  0  0  0
  -15.4930   -2.9842  -62.6993 C   0  0  0  0  0  0  0  0  0  0  0  0
  -15.8315   -3.9893  -63.5970 C   0  0  0  0  0  0  0  0  0  0  0  0
  -18.3803   -9.9793  -61.5620 C   0  0  0  0  0  0  0  0  0  0  0  0
  -19.1173   -9.4749  -62.4815 O   0  0  0  0  0  0  0  0  0  0  0  0
  -19.0473  -10.7973  -60.6241 N   0  0  0  0  0  0  0  0  0  0  0  0
  -20.4552  -11.0036  -60.7452 C   0  0  2  0  0  0  0  0  0  0  0  0
  -21.1657  -10.4924  -59.4699 C   0  0  0  0  0  0  0  0  0  0  0  0
  -20.8857   -9.1324  -59.3438 O   0  0  0  0  0  0  0  0  0  0  0  0
  -20.7942  -12.4379  -60.9723 C   0  0  0  0  0  0  0  0  0  0  0  0
  -20.2258  -12.9952  -62.2070 C   0  0  2  0  0  0  0  0  0  0  0  0
  -20.7033  -14.4792  -62.3956 C   0  0  0  0  0  0  0  0  0  0  0  0
  -19.9439  -14.7711  -63.6821 C   0  0  0  0  0  0  0  0  0  0  0  0
  -18.6534  -14.1013  -63.4629 N   0  0  0  0  0  0  0  0  0  0  0  0
  -18.7848  -13.3136  -62.2393 C   0  0  0  0  0  0  0  0  0  0  0  0
  -17.7979  -13.0840  -61.5370 O   0  0  0  0  0  0  0  0  0  0  0  0
  1  2  1  0
  2  3  1  0
  2  4  1  0
  5  4  1  1
  5  6  1  0
  6  7  1  0
  7  8  2  0
  7  9  1  0
  9 10  1  0
 10 11  1  0
 11 12  2  0
 12 13  1  0
 13 14  2  0
 14 15  1  0
 15 16  2  0
  5 17  1  0
 17 18  2  0
 17 19  1  0
 19 20  1  0
 20 21  1  1
 21 22  1  0
 20 23  1  0
 24 23  1  1
 24 25  1  0
 25 26  1  0
 26 27  1  0
 27 28  1  0
 28 29  2  0
 16 11  1  0
 28 24  1  0
M  END
>  <shape_align_shape_tanimoto>  (3) 
0.59492502047052509

>  <shape_align_color_tanimoto>  (3) 
0.057703350457021518

>  <metric>  (3) 
combo

>  <metric_score>  (3) 
0.326

>  <template_pid>  (3) 
4F49

>  <template_shape_score>  (3) 
0.595

>  <template_color_score>  (3) 
0.058

>  <template_combo_score>  (3) 
0.326

$$$$
