6BJ3_shape_pose
     RDKit          3D

 71 71  0  0  0  0  0  0  0  0999 V2000
  -14.5501  -45.1049  -60.4961 C   0  0  0  0  0  0  0  0  0  0  0  0
  -13.9325  -43.8873  -61.1636 C   0  0  0  0  0  0  0  0  0  0  0  0
  -13.9548  -42.6756  -60.3258 C   0  0  2  0  0  0  0  0  0  0  0  0
  -13.3461  -41.4950  -61.0807 C   0  0  0  0  0  0  0  0  0  0  0  0
  -13.0195  -42.8659  -59.1375 C   0  0  2  0  0  0  0  0  0  0  0  0
  -13.1862  -41.6124  -58.3853 N   0  0  0  0  0  0  0  0  0  0  0  0
  -11.6315  -42.9305  -59.6220 C   0  0  0  0  0  0  0  0  0  0  0  0
  -11.0913  -41.7941  -59.8410 O   0  0  0  0  0  0  0  0  0  0  0  0
  -10.8543  -44.0611  -59.8577 N   0  0  0  0  0  0  0  0  0  0  0  0
  -11.2020  -45.4749  -59.6913 C   0  0  0  0  0  0  0  0  0  0  0  0
   -9.9816  -45.9278  -58.8983 C   0  0  0  0  0  0  0  0  0  0  0  0
   -8.8484  -45.0866  -59.4147 C   0  0  0  0  0  0  0  0  0  0  0  0
   -9.4975  -44.0494  -60.2748 C   0  0  1  0  0  0  0  0  0  0  0  0
   -9.1847  -44.1664  -61.6745 C   0  0  0  0  0  0  0  0  0  0  0  0
   -7.9730  -43.9112  -62.0060 O   0  0  0  0  0  0  0  0  0  0  0  0
  -10.0316  -44.5247  -62.7194 N   0  0  0  0  0  0  0  0  0  0  0  0
   -9.5062  -44.5879  -64.1428 C   0  0  1  0  0  0  0  0  0  0  0  0
   -9.1964  -46.0050  -64.2789 C   0  0  0  0  0  0  0  0  0  0  0  0
   -8.6142  -46.6042  -65.4668 C   0  0  0  0  0  0  0  0  0  0  0  0
   -9.3476  -46.5648  -66.7411 C   0  0  0  0  0  0  0  0  0  0  0  0
   -7.2035  -46.0962  -65.7480 C   0  0  0  0  0  0  0  0  0  0  0  0
  -10.5830  -43.9592  -64.8789 C   0  0  0  0  0  0  0  0  0  0  0  0
  -11.6143  -43.6405  -64.1757 O   0  0  0  0  0  0  0  0  0  0  0  0
  -10.6832  -43.6372  -66.2269 N   0  0  0  0  0  0  0  0  0  0  0  0
  -11.8884  -42.9759  -66.7293 C   0  0  2  0  0  0  0  0  0  0  0  0
  -12.8081  -43.9273  -67.3435 C   0  0  0  0  0  0  0  0  0  0  0  0
  -12.5508  -45.1527  -67.3050 O   0  0  0  0  0  0  0  0  0  0  0  0
  -14.0093  -43.5759  -68.0065 N   0  0  0  0  0  0  0  0  0  0  0  0
  -14.7698  -44.7008  -68.5327 C   0  0  1  0  0  0  0  0  0  0  0  0
  -16.2254  -44.4611  -68.3529 C   0  0  0  0  0  0  0  0  0  0  0  0
  -16.6525  -44.2903  -66.9337 C   0  0  0  0  0  0  0  0  0  0  0  0
  -16.3768  -45.4721  -66.1146 C   0  0  0  0  0  0  0  0  0  0  0  0
  -16.5935  -45.3586  -64.8728 O   0  0  0  0  0  0  0  0  0  0  0  0
  -15.9152  -46.6667  -66.5648 O   0  0  0  0  0  0  0  0  0  0  0  0
  -14.5064  -44.8424  -69.9945 C   0  0  0  0  0  0  0  0  0  0  0  0
  -13.8799  -43.9258  -70.5282 O   0  0  0  0  0  0  0  0  0  0  0  0
  -14.9846  -45.9999  -70.6186 N   0  0  0  0  0  0  0  0  0  0  0  0
  -14.7682  -46.2703  -72.0546 C   0  0  1  0  0  0  0  0  0  0  0  0
  -15.2433  -45.1466  -72.8707 C   0  0  0  0  0  0  0  0  0  0  0  0
  -15.0312  -45.3046  -74.3255 C   0  0  0  0  0  0  0  0  0  0  0  0
  -13.6299  -45.2326  -74.7660 C   0  0  0  0  0  0  0  0  0  0  0  0
  -12.7124  -44.7032  -74.0695 O   0  0  0  0  0  0  0  0  0  0  0  0
  -13.3528  -45.7881  -76.0159 O   0  0  0  0  0  0  0  0  0  0  0  0
  -13.4949  -46.8850  -72.2564 C   0  0  0  0  0  0  0  0  0  0  0  0
  -13.0672  -47.4227  -73.3120 O   0  0  0  0  0  0  0  0  0  0  0  0
  -12.5719  -46.9120  -71.1670 N   0  0  0  0  0  0  0  0  0  0  0  0
  -11.2609  -47.4796  -71.2454 C   0  0  1  0  0  0  0  0  0  0  0  0
  -10.1958  -46.4271  -71.1009 C   0  0  0  0  0  0  0  0  0  0  0  0
  -11.0269  -48.5220  -70.2553 C   0  0  0  0  0  0  0  0  0  0  0  0
   -9.8471  -48.9692  -70.1387 O   0  0  0  0  0  0  0  0  0  0  0  0
  -11.9885  -49.0946  -69.4042 N   0  0  0  0  0  0  0  0  0  0  0  0
  -11.5318  -50.1063  -68.4869 C   0  0  1  0  0  0  0  0  0  0  0  0
  -12.4138  -50.1155  -67.2944 C   0  0  0  0  0  0  0  0  0  0  0  0
  -12.4019  -48.8023  -66.6091 C   0  0  0  0  0  0  0  0  0  0  0  0
  -13.3118  -48.8978  -65.4385 C   0  0  0  0  0  0  0  0  0  0  0  0
  -13.9305  -49.9577  -65.1821 O   0  0  0  0  0  0  0  0  0  0  0  0
  -13.4709  -47.7752  -64.6174 O   0  0  0  0  0  0  0  0  0  0  0  0
  -11.6924  -51.4112  -69.2420 C   0  0  0  0  0  0  0  0  0  0  0  0
  -12.1498  -51.4273  -70.4001 O   0  0  0  0  0  0  0  0  0  0  0  0
  -11.2858  -52.5545  -68.5265 N   0  0  0  0  0  0  0  0  0  0  0  0
  -11.3359  -53.8951  -69.0341 C   0  0  1  0  0  0  0  0  0  0  0  0
   -9.9871  -54.5666  -68.9094 C   0  0  0  0  0  0  0  0  0  0  0  0
   -8.9386  -53.8287  -69.6692 C   0  0  0  0  0  0  0  0  0  0  0  0
   -9.1887  -53.7146  -71.1285 C   0  0  0  0  0  0  0  0  0  0  0  0
   -7.6005  -54.4429  -69.3775 C   0  0  0  0  0  0  0  0  0  0  0  0
  -12.3085  -54.6465  -68.1779 C   0  0  0  0  0  0  0  0  0  0  0  0
  -13.5367  -54.4793  -68.3691 O   0  0  0  0  0  0  0  0  0  0  0  0
  -11.8207  -55.4975  -67.2095 O   0  0  0  0  0  0  0  0  0  0  0  0
  -11.4486  -41.8681  -67.6294 C   0  0  1  0  0  0  0  0  0  0  0  0
  -10.4148  -42.3386  -68.6219 C   0  0  0  0  0  0  0  0  0  0  0  0
  -12.4601  -41.1388  -68.1884 O   0  0  0  0  0  0  0  0  0  0  0  0
  1  2  1  0
  2  3  1  0
  3  4  1  6
  3  5  1  0
  5  6  1  1
  5  7  1  0
  7  8  2  0
  7  9  1  0
  9 10  1  0
 10 11  1  0
 11 12  1  0
 12 13  1  0
 13 14  1  6
 14 15  2  0
 14 16  1  0
 16 17  1  0
 17 18  1  6
 18 19  1  0
 19 20  1  0
 19 21  1  0
 17 22  1  0
 22 23  2  0
 22 24  1  0
 25 24  1  6
 25 26  1  0
 26 27  2  0
 26 28  1  0
 28 29  1  0
 29 30  1  6
 30 31  1  0
 31 32  1  0
 32 33  2  0
 32 34  1  0
 29 35  1  0
 35 36  2  0
 35 37  1  0
 37 38  1  0
 38 39  1  6
 39 40  1  0
 40 41  1  0
 41 42  2  0
 41 43  1  0
 38 44  1  0
 44 45  2  0
 44 46  1  0
 46 47  1  0
 47 48  1  1
 47 49  1  0
 49 50  2  0
 49 51  1  0
 51 52  1  0
 52 53  1  1
 53 54  1  0
 54 55  1  0
 55 56  2  0
 55 57  1  0
 52 58  1  0
 58 59  2  0
 58 60  1  0
 60 61  1  0
 61 62  1  1
 62 63  1  0
 63 64  1  0
 63 65  1  0
 61 66  1  0
 66 67  2  0
 66 68  1  0
 25 69  1  0
 69 70  1  6
 69 71  1  0
 13  9  1  0
M  CHG  5   6   1  34  -1  43  -1  57  -1  68  -1
M  END
>  <shape_align_shape_tanimoto>  (1) 
0.36824120468581156

>  <shape_align_color_tanimoto>  (1) 
0.014724422613472737

>  <metric>  (1) 
shape

>  <metric_score>  (1) 
0.368

>  <template_pid>  (1) 
6BJ3

>  <template_shape_score>  (1) 
0.368

>  <template_color_score>  (1) 
0.015

>  <template_combo_score>  (1) 
0.191

$$$$
6BJ3_color_pose
     RDKit          3D

 71 71  0  0  0  0  0  0  0  0999 V2000
  -12.6034  -36.7840  -60.0914 C   0  0  0  0  0  0  0  0  0  0  0  0
  -12.9588  -38.1174  -60.6970 C   0  0  0  0  0  0  0  0  0  0  0  0
  -12.4821  -39.2731  -59.8386 C   0  0  2  0  0  0  0  0  0  0  0  0
  -10.9768  -39.2051  -59.6867 C   0  0  0  0  0  0  0  0  0  0  0  0
  -12.9631  -40.5768  -60.3656 C   0  0  2  0  0  0  0  0  0  0  0  0
  -14.3965  -40.7433  -60.4299 N   0  0  0  0  0  0  0  0  0  0  0  0
  -12.3613  -41.7794  -59.7919 C   0  0  0  0  0  0  0  0  0  0  0  0
  -11.3177  -41.5959  -59.0597 O   0  0  0  0  0  0  0  0  0  0  0  0
  -12.7917  -43.1141  -59.9571 N   0  0  0  0  0  0  0  0  0  0  0  0
  -13.9043  -43.6776  -60.6945 C   0  0  0  0  0  0  0  0  0  0  0  0
  -13.7010  -45.1732  -60.6973 C   0  0  0  0  0  0  0  0  0  0  0  0
  -12.9871  -45.4255  -59.4019 C   0  0  0  0  0  0  0  0  0  0  0  0
  -12.0676  -44.2378  -59.3368 C   0  0  1  0  0  0  0  0  0  0  0  0
  -10.7950  -44.5419  -60.0667 C   0  0  0  0  0  0  0  0  0  0  0  0
  -10.1675  -45.5491  -59.6190 O   0  0  0  0  0  0  0  0  0  0  0  0
  -10.3647  -43.7555  -61.1496 N   0  0  0  0  0  0  0  0  0  0  0  0
   -9.2001  -43.8623  -61.9423 C   0  0  1  0  0  0  0  0  0  0  0  0
   -7.9658  -44.4499  -61.3436 C   0  0  0  0  0  0  0  0  0  0  0  0
   -7.3089  -43.7333  -60.2453 C   0  0  0  0  0  0  0  0  0  0  0  0
   -7.9941  -43.4227  -58.9838 C   0  0  0  0  0  0  0  0  0  0  0  0
   -6.0698  -44.5873  -59.8466 C   0  0  0  0  0  0  0  0  0  0  0  0
   -9.4612  -44.2521  -63.3089 C   0  0  0  0  0  0  0  0  0  0  0  0
   -8.4987  -44.2664  -64.1398 O   0  0  0  0  0  0  0  0  0  0  0  0
  -10.7901  -44.6144  -63.7079 N   0  0  0  0  0  0  0  0  0  0  0  0
  -11.0513  -44.9989  -65.1244 C   0  0  2  0  0  0  0  0  0  0  0  0
  -12.2792  -44.3519  -65.5791 C   0  0  0  0  0  0  0  0  0  0  0  0
  -12.9579  -43.7483  -64.6625 O   0  0  0  0  0  0  0  0  0  0  0  0
  -12.8022  -44.3100  -66.8898 N   0  0  0  0  0  0  0  0  0  0  0  0
  -14.0721  -43.6245  -67.2065 C   0  0  1  0  0  0  0  0  0  0  0  0
  -13.7952  -42.2558  -67.7117 C   0  0  0  0  0  0  0  0  0  0  0  0
  -14.9176  -41.3978  -68.1343 C   0  0  0  0  0  0  0  0  0  0  0  0
  -15.6445  -41.7448  -69.3488 C   0  0  0  0  0  0  0  0  0  0  0  0
  -15.2955  -42.5405  -70.2465 O   0  0  0  0  0  0  0  0  0  0  0  0
  -16.8914  -41.1171  -69.5511 O   0  0  0  0  0  0  0  0  0  0  0  0
  -15.0587  -44.4301  -67.8738 C   0  0  0  0  0  0  0  0  0  0  0  0
  -16.2605  -43.9597  -67.9210 O   0  0  0  0  0  0  0  0  0  0  0  0
  -14.7101  -45.6669  -68.4381 N   0  0  0  0  0  0  0  0  0  0  0  0
  -15.5256  -46.6315  -69.1115 C   0  0  1  0  0  0  0  0  0  0  0  0
  -17.0395  -46.3753  -68.8497 C   0  0  0  0  0  0  0  0  0  0  0  0
  -17.3896  -46.5423  -67.4094 C   0  0  0  0  0  0  0  0  0  0  0  0
  -18.8451  -46.2218  -67.2299 C   0  0  0  0  0  0  0  0  0  0  0  0
  -19.5263  -45.8682  -68.2404 O   0  0  0  0  0  0  0  0  0  0  0  0
  -19.3923  -46.3257  -65.9582 O   0  0  0  0  0  0  0  0  0  0  0  0
  -15.3367  -46.6670  -70.5590 C   0  0  0  0  0  0  0  0  0  0  0  0
  -15.8985  -47.6414  -71.1813 O   0  0  0  0  0  0  0  0  0  0  0  0
  -14.5804  -45.6920  -71.2982 N   0  0  0  0  0  0  0  0  0  0  0  0
  -14.4428  -45.8054  -72.7223 C   0  0  1  0  0  0  0  0  0  0  0  0
  -15.5628  -44.9734  -73.3997 C   0  0  0  0  0  0  0  0  0  0  0  0
  -13.1294  -45.2814  -73.1541 C   0  0  0  0  0  0  0  0  0  0  0  0
  -12.9536  -45.3291  -74.4358 O   0  0  0  0  0  0  0  0  0  0  0  0
  -12.1325  -44.7646  -72.3063 N   0  0  0  0  0  0  0  0  0  0  0  0
  -10.8562  -44.2350  -72.6668 C   0  0  1  0  0  0  0  0  0  0  0  0
  -10.2950  -44.7368  -73.9848 C   0  0  0  0  0  0  0  0  0  0  0  0
  -10.0348  -46.2203  -74.0012 C   0  0  0  0  0  0  0  0  0  0  0  0
   -9.0179  -46.5840  -72.9533 C   0  0  0  0  0  0  0  0  0  0  0  0
   -9.3716  -46.7553  -71.7398 O   0  0  0  0  0  0  0  0  0  0  0  0
   -7.6640  -46.7380  -73.3109 O   0  0  0  0  0  0  0  0  0  0  0  0
  -10.9563  -42.7709  -72.6862 C   0  0  0  0  0  0  0  0  0  0  0  0
  -12.1079  -42.2851  -72.4011 O   0  0  0  0  0  0  0  0  0  0  0  0
   -9.9339  -41.8587  -72.9800 N   0  0  0  0  0  0  0  0  0  0  0  0
  -10.2255  -40.4114  -72.9486 C   0  0  1  0  0  0  0  0  0  0  0  0
   -9.3454  -39.7041  -71.9542 C   0  0  0  0  0  0  0  0  0  0  0  0
   -9.6319  -38.2324  -71.9059 C   0  0  0  0  0  0  0  0  0  0  0  0
   -8.7148  -37.5532  -70.8827 C   0  0  0  0  0  0  0  0  0  0  0  0
  -11.0413  -37.9150  -71.4754 C   0  0  0  0  0  0  0  0  0  0  0  0
   -9.9975  -39.8747  -74.3274 C   0  0  0  0  0  0  0  0  0  0  0  0
  -10.4671  -38.7753  -74.7028 O   0  0  0  0  0  0  0  0  0  0  0  0
   -9.2508  -40.5975  -75.2264 O   0  0  0  0  0  0  0  0  0  0  0  0
  -11.0386  -46.5079  -65.2227 C   0  0  1  0  0  0  0  0  0  0  0  0
  -11.0350  -46.8855  -66.6883 C   0  0  0  0  0  0  0  0  0  0  0  0
   -9.7487  -46.8934  -64.7607 O   0  0  0  0  0  0  0  0  0  0  0  0
  1  2  1  0
  2  3  1  0
  3  4  1  6
  3  5  1  0
  5  6  1  1
  5  7  1  0
  7  8  2  0
  7  9  1  0
  9 10  1  0
 10 11  1  0
 11 12  1  0
 12 13  1  0
 13 14  1  6
 14 15  2  0
 14 16  1  0
 16 17  1  0
 17 18  1  1
 18 19  1  0
 19 20  1  0
 19 21  1  0
 17 22  1  0
 22 23  2  0
 22 24  1  0
 25 24  1  1
 25 26  1  0
 26 27  2  0
 26 28  1  0
 28 29  1  0
 29 30  1  6
 30 31  1  0
 31 32  1  0
 32 33  2  0
 32 34  1  0
 29 35  1  0
 35 36  2  0
 35 37  1  0
 37 38  1  0
 38 39  1  6
 39 40  1  0
 40 41  1  0
 41 42  2  0
 41 43  1  0
 38 44  1  0
 44 45  2  0
 44 46  1  0
 46 47  1  0
 47 48  1  6
 47 49  1  0
 49 50  2  0
 49 51  1  0
 51 52  1  0
 52 53  1  6
 53 54  1  0
 54 55  1  0
 55 56  2  0
 55 57  1  0
 52 58  1  0
 58 59  2  0
 58 60  1  0
 60 61  1  0
 61 62  1  1
 62 63  1  0
 63 64  1  0
 63 65  1  0
 61 66  1  0
 66 67  2  0
 66 68  1  0
 25 69  1  0
 69 70  1  6
 69 71  1  0
 13  9  1  0
M  CHG  5   6   1  34  -1  43  -1  57  -1  68  -1
M  END
>  <shape_align_shape_tanimoto>  (2) 
0.26919823053039466

>  <shape_align_color_tanimoto>  (2) 
0.08055994563230516

>  <metric>  (2) 
color

>  <metric_score>  (2) 
0.081

>  <template_pid>  (2) 
6BJ3

>  <template_shape_score>  (2) 
0.269

>  <template_color_score>  (2) 
0.081

>  <template_combo_score>  (2) 
0.175

$$$$
6BJ3_combo_pose
     RDKit          3D

 71 71  0  0  0  0  0  0  0  0999 V2000
  -12.9518  -50.5090  -69.6486 C   0  0  0  0  0  0  0  0  0  0  0  0
  -11.7216  -51.0882  -69.0054 C   0  0  0  0  0  0  0  0  0  0  0  0
  -10.7245  -51.3664  -70.1004 C   0  0  2  0  0  0  0  0  0  0  0  0
  -11.3753  -52.3487  -71.0377 C   0  0  0  0  0  0  0  0  0  0  0  0
   -9.4682  -51.9848  -69.5533 C   0  0  2  0  0  0  0  0  0  0  0  0
   -9.9445  -53.2154  -68.9072 N   0  0  0  0  0  0  0  0  0  0  0  0
   -8.7623  -51.1844  -68.5628 C   0  0  0  0  0  0  0  0  0  0  0  0
   -8.8673  -51.5819  -67.3464 O   0  0  0  0  0  0  0  0  0  0  0  0
   -7.9856  -50.0245  -68.8629 N   0  0  0  0  0  0  0  0  0  0  0  0
   -7.7200  -49.3959  -70.1138 C   0  0  0  0  0  0  0  0  0  0  0  0
   -7.3012  -47.9746  -69.7579 C   0  0  0  0  0  0  0  0  0  0  0  0
   -6.4937  -48.2332  -68.5301 C   0  0  0  0  0  0  0  0  0  0  0  0
   -7.2932  -49.2644  -67.8117 C   0  0  1  0  0  0  0  0  0  0  0  0
   -8.2438  -48.6843  -66.8743 C   0  0  0  0  0  0  0  0  0  0  0  0
   -9.4759  -48.8214  -67.1538 O   0  0  0  0  0  0  0  0  0  0  0  0
   -7.9474  -47.9922  -65.6965 N   0  0  0  0  0  0  0  0  0  0  0  0
   -9.0331  -47.5006  -64.9102 C   0  0  1  0  0  0  0  0  0  0  0  0
   -8.9870  -48.1506  -63.5267 C   0  0  0  0  0  0  0  0  0  0  0  0
   -9.1084  -49.6410  -63.6198 C   0  0  0  0  0  0  0  0  0  0  0  0
   -9.0475  -50.1612  -62.1889 C   0  0  0  0  0  0  0  0  0  0  0  0
  -10.4701  -50.0352  -64.1297 C   0  0  0  0  0  0  0  0  0  0  0  0
   -8.9156  -46.0345  -64.6014 C   0  0  0  0  0  0  0  0  0  0  0  0
   -7.8874  -45.3993  -64.8938 O   0  0  0  0  0  0  0  0  0  0  0  0
  -10.0509  -45.4890  -63.9791 N   0  0  0  0  0  0  0  0  0  0  0  0
  -10.2207  -44.1148  -63.5760 C   0  0  2  0  0  0  0  0  0  0  0  0
  -10.7491  -44.0649  -62.2377 C   0  0  0  0  0  0  0  0  0  0  0  0
  -10.7191  -45.1598  -61.5699 O   0  0  0  0  0  0  0  0  0  0  0  0
  -11.3098  -42.9227  -61.5770 N   0  0  0  0  0  0  0  0  0  0  0  0
  -11.7520  -43.1744  -60.2314 C   0  0  1  0  0  0  0  0  0  0  0  0
  -11.7599  -42.0255  -59.3226 C   0  0  0  0  0  0  0  0  0  0  0  0
  -12.6307  -40.8803  -59.7276 C   0  0  0  0  0  0  0  0  0  0  0  0
  -12.4766  -39.8560  -58.6397 C   0  0  0  0  0  0  0  0  0  0  0  0
  -11.7040  -40.1873  -57.7137 O   0  0  0  0  0  0  0  0  0  0  0  0
  -13.1466  -38.6524  -58.6865 O   0  0  0  0  0  0  0  0  0  0  0  0
  -13.0248  -43.9627  -60.2481 C   0  0  0  0  0  0  0  0  0  0  0  0
  -13.3907  -44.5009  -59.1707 O   0  0  0  0  0  0  0  0  0  0  0  0
  -13.8053  -44.1162  -61.4396 N   0  0  0  0  0  0  0  0  0  0  0  0
  -14.9616  -44.9767  -61.2853 C   0  0  1  0  0  0  0  0  0  0  0  0
  -16.2347  -44.1694  -61.1663 C   0  0  0  0  0  0  0  0  0  0  0  0
  -17.3689  -45.1733  -60.9954 C   0  0  0  0  0  0  0  0  0  0  0  0
  -18.6612  -44.4747  -60.8636 C   0  0  0  0  0  0  0  0  0  0  0  0
  -19.7459  -45.1183  -60.6968 O   0  0  0  0  0  0  0  0  0  0  0  0
  -18.7872  -43.0946  -60.9078 O   0  0  0  0  0  0  0  0  0  0  0  0
  -15.0656  -45.7457  -62.5356 C   0  0  0  0  0  0  0  0  0  0  0  0
  -15.3424  -46.9621  -62.5212 O   0  0  0  0  0  0  0  0  0  0  0  0
  -14.8595  -45.1456  -63.7869 N   0  0  0  0  0  0  0  0  0  0  0  0
  -14.8707  -45.7977  -65.0525 C   0  0  1  0  0  0  0  0  0  0  0  0
  -16.0962  -46.7665  -65.0693 C   0  0  0  0  0  0  0  0  0  0  0  0
  -15.0849  -44.8364  -66.1196 C   0  0  0  0  0  0  0  0  0  0  0  0
  -15.6121  -43.7120  -65.8602 O   0  0  0  0  0  0  0  0  0  0  0  0
  -14.7478  -45.0531  -67.4769 N   0  0  0  0  0  0  0  0  0  0  0  0
  -14.9988  -44.1910  -68.5478 C   0  0  1  0  0  0  0  0  0  0  0  0
  -14.4769  -42.7952  -68.4845 C   0  0  0  0  0  0  0  0  0  0  0  0
  -12.9934  -42.6520  -68.3729 C   0  0  0  0  0  0  0  0  0  0  0  0
  -12.6804  -41.1965  -68.3464 C   0  0  0  0  0  0  0  0  0  0  0  0
  -11.5193  -40.7414  -68.3638 O   0  0  0  0  0  0  0  0  0  0  0  0
  -13.6966  -40.2313  -68.2984 O   0  0  0  0  0  0  0  0  0  0  0  0
  -14.6105  -44.7237  -69.8529 C   0  0  0  0  0  0  0  0  0  0  0  0
  -13.9419  -45.8002  -69.9532 O   0  0  0  0  0  0  0  0  0  0  0  0
  -14.9393  -44.0969  -71.0747 N   0  0  0  0  0  0  0  0  0  0  0  0
  -14.4542  -44.7338  -72.2817 C   0  0  1  0  0  0  0  0  0  0  0  0
  -15.6013  -45.3087  -73.0923 C   0  0  0  0  0  0  0  0  0  0  0  0
  -15.1155  -46.0337  -74.2729 C   0  0  0  0  0  0  0  0  0  0  0  0
  -14.1929  -47.1813  -73.9103 C   0  0  0  0  0  0  0  0  0  0  0  0
  -14.5432  -45.3035  -75.4139 C   0  0  0  0  0  0  0  0  0  0  0  0
  -13.9068  -43.5695  -73.0565 C   0  0  0  0  0  0  0  0  0  0  0  0
  -14.5472  -42.9800  -73.9376 O   0  0  0  0  0  0  0  0  0  0  0  0
  -12.6075  -43.1009  -72.7922 O   0  0  0  0  0  0  0  0  0  0  0  0
  -10.9935  -43.3350  -64.6110 C   0  0  1  0  0  0  0  0  0  0  0  0
  -10.2181  -43.2874  -65.9118 C   0  0  0  0  0  0  0  0  0  0  0  0
  -12.2390  -43.8164  -64.8604 O   0  0  0  0  0  0  0  0  0  0  0  0
  1  2  1  0
  2  3  1  0
  3  4  1  6
  3  5  1  0
  5  6  1  1
  5  7  1  0
  7  8  2  0
  7  9  1  0
  9 10  1  0
 10 11  1  0
 11 12  1  0
 12 13  1  0
 13 14  1  1
 14 15  2  0
 14 16  1  0
 16 17  1  0
 17 18  1  1
 18 19  1  0
 19 20  1  0
 19 21  1  0
 17 22  1  0
 22 23  2  0
 22 24  1  0
 25 24  1  6
 25 26  1  0
 26 27  2  0
 26 28  1  0
 28 29  1  0
 29 30  1  6
 30 31  1  0
 31 32  1  0
 32 33  2  0
 32 34  1  0
 29 35  1  0
 35 36  2  0
 35 37  1  0
 37 38  1  0
 38 39  1  6
 39 40  1  0
 40 41  1  0
 41 42  2  0
 41 43  1  0
 38 44  1  0
 44 45  2  0
 44 46  1  0
 46 47  1  0
 47 48  1  1
 47 49  1  0
 49 50  2  0
 49 51  1  0
 51 52  1  0
 52 53  1  1
 53 54  1  0
 54 55  1  0
 55 56  2  0
 55 57  1  0
 52 58  1  0
 58 59  2  0
 58 60  1  0
 60 61  1  0
 61 62  1  6
 62 63  1  0
 63 64  1  0
 63 65  1  0
 61 66  1  0
 66 67  2  0
 66 68  1  0
 25 69  1  0
 69 70  1  6
 69 71  1  0
 13  9  1  0
M  CHG  5   6   1  34  -1  43  -1  57  -1  68  -1
M  END
>  <shape_align_shape_tanimoto>  (3) 
0.31474612161486837

>  <shape_align_color_tanimoto>  (3) 
0.078261163966461517

>  <metric>  (3) 
combo

>  <metric_score>  (3) 
0.197

>  <template_pid>  (3) 
6BJ3

>  <template_shape_score>  (3) 
0.315

>  <template_color_score>  (3) 
0.078

>  <template_combo_score>  (3) 
0.197

$$$$
