5SZ0_shape_pose
     RDKit          3D

 16 17  0  0  0  0  0  0  0  0999 V2000
   18.6683   -2.5195   15.2489 N   0  0  0  0  0  0  0  0  0  0  0  0
   17.0922   -2.2368   14.5922 S   0  0  0  0  0  0  0  0  0  0  0  0
   17.1867   -2.5129   13.1140 O   0  0  0  0  0  0  0  0  0  0  0  0
   16.1451   -3.1815   15.2442 O   0  0  0  0  0  0  0  0  0  0  0  0
   16.6593   -0.5598   14.8103 C   0  0  0  0  0  0  0  0  0  0  0  0
   15.9933   -0.2215   15.9912 C   0  0  0  0  0  0  0  0  0  0  0  0
   15.6156    1.0885   16.2394 C   0  0  0  0  0  0  0  0  0  0  0  0
   15.9322    2.0207   15.2659 C   0  0  0  0  0  0  0  0  0  0  0  0
   15.5464    3.4152   15.4985 C   0  0  0  0  0  0  0  0  0  0  0  0
   16.3486    4.4026   14.9626 C   0  0  0  0  0  0  0  0  0  0  0  0
   15.9738    5.7186   15.1888 C   0  0  0  0  0  0  0  0  0  0  0  0
   14.8405    5.9973   15.9230 C   0  0  0  0  0  0  0  0  0  0  0  0
   14.0312    5.0102   16.4635 C   0  0  0  0  0  0  0  0  0  0  0  0
   14.4140    3.6831   16.2324 C   0  0  0  0  0  0  0  0  0  0  0  0
   16.5850    1.7063   14.1018 C   0  0  0  0  0  0  0  0  0  0  0  0
   16.9590    0.3996   13.8598 C   0  0  0  0  0  0  0  0  0  0  0  0
  1  2  1  0
  2  3  2  0
  2  4  2  0
  2  5  1  0
  5  6  2  0
  6  7  1  0
  7  8  2  0
  8  9  1  0
  9 10  2  0
 10 11  1  0
 11 12  2  0
 12 13  1  0
 13 14  2  0
  8 15  1  0
 15 16  2  0
 16  5  1  0
 14  9  1  0
M  END
>  <shape_align_shape_tanimoto>  (1) 
0.66282792598211704

>  <shape_align_color_tanimoto>  (1) 
0.091062200792351708

>  <metric>  (1) 
shape

>  <metric_score>  (1) 
0.663

>  <template_pid>  (1) 
5SZ0

>  <template_shape_score>  (1) 
0.663

>  <template_color_score>  (1) 
0.091

>  <template_combo_score>  (1) 
0.377

$$$$
5SZ0_color_pose
     RDKit          3D

 16 17  0  0  0  0  0  0  0  0999 V2000
   18.7011   -2.4547   15.1040 N   0  0  0  0  0  0  0  0  0  0  0  0
   17.1175   -2.1301   14.5005 S   0  0  0  0  0  0  0  0  0  0  0  0
   16.1791   -3.1267   15.1614 O   0  0  0  0  0  0  0  0  0  0  0  0
   17.1299   -2.3698   13.0179 O   0  0  0  0  0  0  0  0  0  0  0  0
   16.6149   -0.4931   14.8645 C   0  0  0  0  0  0  0  0  0  0  0  0
   15.9376   -0.1848   16.0398 C   0  0  0  0  0  0  0  0  0  0  0  0
   15.5694    1.1310   16.2638 C   0  0  0  0  0  0  0  0  0  0  0  0
   15.8825    2.1017   15.3182 C   0  0  0  0  0  0  0  0  0  0  0  0
   15.5005    3.5029   15.5339 C   0  0  0  0  0  0  0  0  0  0  0  0
   14.3578    3.8455   16.2278 C   0  0  0  0  0  0  0  0  0  0  0  0
   14.0132    5.1722   16.4211 C   0  0  0  0  0  0  0  0  0  0  0  0
   14.8383    6.1656   15.9039 C   0  0  0  0  0  0  0  0  0  0  0  0
   15.9943    5.8385   15.2017 C   0  0  0  0  0  0  0  0  0  0  0  0
   16.3118    4.4976   15.0252 C   0  0  0  0  0  0  0  0  0  0  0  0
   16.5546    1.8040   14.1490 C   0  0  0  0  0  0  0  0  0  0  0  0
   16.9195    0.4917   13.9301 C   0  0  0  0  0  0  0  0  0  0  0  0
  1  2  1  0
  2  3  2  0
  2  4  2  0
  2  5  1  0
  5  6  2  0
  6  7  1  0
  7  8  2  0
  8  9  1  0
  9 10  2  0
 10 11  1  0
 11 12  2  0
 12 13  1  0
 13 14  2  0
  8 15  1  0
 15 16  2  0
 16  5  1  0
 14  9  1  0
M  END
>  <shape_align_shape_tanimoto>  (2) 
0.65820758972227311

>  <shape_align_color_tanimoto>  (2) 
0.09460003109109863

>  <metric>  (2) 
color

>  <metric_score>  (2) 
0.095

>  <template_pid>  (2) 
5SZ0

>  <template_shape_score>  (2) 
0.658

>  <template_color_score>  (2) 
0.095

>  <template_combo_score>  (2) 
0.376

$$$$
5SZ0_combo_pose
     RDKit          3D

 16 17  0  0  0  0  0  0  0  0999 V2000
   15.8553   -3.0123   13.6589 N   0  0  0  0  0  0  0  0  0  0  0  0
   17.0945   -2.1511   14.5243 S   0  0  0  0  0  0  0  0  0  0  0  0
   18.3358   -2.1552   13.6894 O   0  0  0  0  0  0  0  0  0  0  0  0
   17.3503   -2.9209   15.7872 O   0  0  0  0  0  0  0  0  0  0  0  0
   16.6089   -0.5121   14.8628 C   0  0  0  0  0  0  0  0  0  0  0  0
   16.9108    0.4599   13.9335 C   0  0  0  0  0  0  0  0  0  0  0  0
   16.5589    1.7832   14.1289 C   0  0  0  0  0  0  0  0  0  0  0  0
   15.8905    2.0977   15.2948 C   0  0  0  0  0  0  0  0  0  0  0  0
   15.5052    3.4977   15.5257 C   0  0  0  0  0  0  0  0  0  0  0  0
   14.3636    3.7899   16.2495 C   0  0  0  0  0  0  0  0  0  0  0  0
   14.0540    5.1240   16.4328 C   0  0  0  0  0  0  0  0  0  0  0  0
   14.8539    6.1453   15.9129 C   0  0  0  0  0  0  0  0  0  0  0  0
   15.9913    5.8171   15.1918 C   0  0  0  0  0  0  0  0  0  0  0  0
   16.3221    4.4894   14.9951 C   0  0  0  0  0  0  0  0  0  0  0  0
   15.5716    1.1388   16.2520 C   0  0  0  0  0  0  0  0  0  0  0  0
   15.9356   -0.1755   16.0303 C   0  0  0  0  0  0  0  0  0  0  0  0
  1  2  1  0
  2  3  2  0
  2  4  2  0
  2  5  1  0
  5  6  2  0
  6  7  1  0
  7  8  2  0
  8  9  1  0
  9 10  2  0
 10 11  1  0
 11 12  2  0
 12 13  1  0
 13 14  2  0
  8 15  1  0
 15 16  2  0
 16  5  1  0
 14  9  1  0
M  END
>  <shape_align_shape_tanimoto>  (3) 
0.66058783872149118

>  <shape_align_color_tanimoto>  (3) 
0.094213332435305996

>  <metric>  (3) 
combo

>  <metric_score>  (3) 
0.377

>  <template_pid>  (3) 
5SZ0

>  <template_shape_score>  (3) 
0.661

>  <template_color_score>  (3) 
0.094

>  <template_combo_score>  (3) 
0.377

$$$$
