5XMV_shape_pose
     RDKit          3D

 34 38  0  0  0  0  0  0  0  0999 V2000
   88.5902   70.0023   28.3350 C   0  0  0  0  0  0  0  0  0  0  0  0
   89.4675   69.6263   29.4619 C   0  0  0  0  0  0  0  0  0  0  0  0
   89.8500   68.3356   29.6654 N   0  0  0  0  0  0  0  0  0  0  0  0
   90.5794   68.2581   30.7583 N   0  0  0  0  0  0  0  0  0  0  0  0
   90.6745   69.4983   31.2735 C   0  0  0  0  0  0  0  0  0  0  0  0
   89.9963   70.4200   30.4980 C   0  0  0  0  0  0  0  0  0  0  0  0
   89.9328   71.8655   30.7552 C   0  0  2  0  0  0  0  0  0  0  0  0
   90.6526   72.1186   32.0595 C   0  0  0  0  0  0  0  0  0  0  0  0
   90.6468   73.4742   32.6244 C   0  0  0  0  0  0  0  0  0  0  0  0
   90.6336   74.5432   33.0899 N   0  0  0  0  0  0  0  0  0  0  0  0
   91.2762   71.2255   32.7751 C   0  0  0  0  0  0  0  0  0  0  0  0
   91.9446   71.5767   33.9983 N   0  0  0  0  0  0  0  0  0  0  0  0
   91.3317   69.8853   32.4315 O   0  0  0  0  0  0  0  0  0  0  0  0
   88.6222   72.4481   30.7955 C   0  0  0  0  0  0  0  0  0  0  0  0
   87.4249   71.9452   31.3374 C   0  0  0  0  0  0  0  0  0  0  0  0
   86.2456   72.6541   31.2709 C   0  0  0  0  0  0  0  0  0  0  0  0
   85.0597   72.1064   31.8238 N   0  0  0  0  0  0  0  0  0  0  0  0
   85.0374   70.7241   32.3319 C   0  0  0  0  0  0  0  0  0  0  0  0
   83.6148   70.1832   32.2891 C   0  0  0  0  0  0  0  0  0  0  0  0
   82.9502   70.6687   31.0385 C   0  0  0  0  0  0  0  0  0  0  0  0
   81.6779   69.9546   30.7260 C   0  0  0  0  0  0  0  0  0  0  0  0
   80.6526   70.0764   31.7769 C   0  0  0  0  0  0  0  0  0  0  0  0
   80.7581   70.6916   32.8531 O   0  0  0  0  0  0  0  0  0  0  0  0
   79.4279   69.4292   31.5379 O   0  0  0  0  0  0  0  0  0  0  0  0
   82.7117   72.1521   31.1359 C   0  0  0  0  0  0  0  0  0  0  0  0
   83.8098   72.8244   31.9429 C   0  0  0  0  0  0  0  0  0  0  0  0
   86.2129   73.8910   30.6624 C   0  0  0  0  0  0  0  0  0  0  0  0
   87.3879   74.4189   30.1139 C   0  0  0  0  0  0  0  0  0  0  0  0
   87.4048   75.6274   29.5046 F   0  0  0  0  0  0  0  0  0  0  0  0
   88.5535   73.6685   30.2048 C   0  0  0  0  0  0  0  0  0  0  0  0
   89.8985   73.9984   29.7273 C   0  0  0  0  0  0  0  0  0  0  0  0
   90.6641   72.7248   29.7948 C   0  0  0  0  0  0  0  0  0  0  0  0
   90.8735   72.1295   28.4174 C   0  0  0  0  0  0  0  0  0  0  0  0
   92.0635   73.1012   30.2860 C   0  0  0  0  0  0  0  0  0  0  0  0
  1  2  1  0
  2  3  2  0
  3  4  1  0
  4  5  1  0
  5  6  2  0
  6  7  1  0
  7  8  1  0
  8  9  1  0
  9 10  3  0
  8 11  2  0
 11 12  1  0
 11 13  1  0
  7 14  1  0
 14 15  2  0
 15 16  1  0
 16 17  1  0
 17 18  1  0
 18 19  1  0
 19 20  1  0
 20 21  1  0
 21 22  1  0
 22 23  2  0
 22 24  1  0
 20 25  1  0
 25 26  1  0
 16 27  2  0
 27 28  1  0
 28 29  1  0
 28 30  2  0
 30 31  1  0
 31 32  1  0
 32 33  1  0
 32 34  1  0
  6  2  1  0
  7 32  1  6
 13  5  1  0
 30 14  1  0
 26 17  1  0
M  CHG  1  24  -1
M  END
>  <shape_align_shape_tanimoto>  (1) 
0.58722169014668102

>  <shape_align_color_tanimoto>  (1) 
0.023255982788700804

>  <metric>  (1) 
shape

>  <metric_score>  (1) 
0.587

>  <template_pid>  (1) 
5XMV

>  <template_shape_score>  (1) 
0.587

>  <template_color_score>  (1) 
0.023

>  <template_combo_score>  (1) 
0.305

$$$$
5XMV_color_pose
     RDKit          3D

 34 38  0  0  0  0  0  0  0  0999 V2000
   88.6886   71.5442   33.6703 C   0  0  0  0  0  0  0  0  0  0  0  0
   88.6993   73.0002   33.4384 C   0  0  0  0  0  0  0  0  0  0  0  0
   88.9460   73.8769   34.4538 N   0  0  0  0  0  0  0  0  0  0  0  0
   88.8393   75.1119   34.0048 N   0  0  0  0  0  0  0  0  0  0  0  0
   88.5220   75.0420   32.6971 C   0  0  0  0  0  0  0  0  0  0  0  0
   88.4239   73.7342   32.2706 C   0  0  0  0  0  0  0  0  0  0  0  0
   88.1423   73.3108   30.8914 C   0  0  2  0  0  0  0  0  0  0  0  0
   87.8648   74.5475   30.0860 C   0  0  0  0  0  0  0  0  0  0  0  0
   87.4084   74.4302   28.6981 C   0  0  0  0  0  0  0  0  0  0  0  0
   87.0409   74.3483   27.5749 N   0  0  0  0  0  0  0  0  0  0  0  0
   87.9564   75.7783   30.5287 C   0  0  0  0  0  0  0  0  0  0  0  0
   87.6870   76.9071   29.6728 N   0  0  0  0  0  0  0  0  0  0  0  0
   88.2919   76.1063   31.8355 O   0  0  0  0  0  0  0  0  0  0  0  0
   87.1202   72.3188   30.7219 C   0  0  0  0  0  0  0  0  0  0  0  0
   85.8979   72.1516   31.3944 C   0  0  0  0  0  0  0  0  0  0  0  0
   85.0370   71.1147   31.1094 C   0  0  0  0  0  0  0  0  0  0  0  0
   83.8010   70.9809   31.7882 N   0  0  0  0  0  0  0  0  0  0  0  0
   83.0343   69.7248   31.8040 C   0  0  0  0  0  0  0  0  0  0  0  0
   81.8216   69.9425   30.9587 C   0  0  0  0  0  0  0  0  0  0  0  0
   81.1561   71.2654   31.1875 C   0  0  0  0  0  0  0  0  0  0  0  0
   79.6763   70.9915   31.4429 C   0  0  0  0  0  0  0  0  0  0  0  0
   79.4579   70.1380   32.6337 C   0  0  0  0  0  0  0  0  0  0  0  0
   79.5348   68.8917   32.6437 O   0  0  0  0  0  0  0  0  0  0  0  0
   79.1412   70.7762   33.8386 O   0  0  0  0  0  0  0  0  0  0  0  0
   81.6736   72.0812   32.3093 C   0  0  0  0  0  0  0  0  0  0  0  0
   83.1637   72.0774   32.5119 C   0  0  0  0  0  0  0  0  0  0  0  0
   85.3888   70.1972   30.1187 C   0  0  0  0  0  0  0  0  0  0  0  0
   86.5807   70.3299   29.4357 C   0  0  0  0  0  0  0  0  0  0  0  0
   86.9183   69.4309   28.4689 F   0  0  0  0  0  0  0  0  0  0  0  0
   87.4082   71.3924   29.7635 C   0  0  0  0  0  0  0  0  0  0  0  0
   88.7030   71.7657   29.1854 C   0  0  0  0  0  0  0  0  0  0  0  0
   89.3063   72.7033   30.1750 C   0  0  0  0  0  0  0  0  0  0  0  0
   90.1562   73.7606   29.4656 C   0  0  0  0  0  0  0  0  0  0  0  0
   90.2793   71.9656   31.0617 C   0  0  0  0  0  0  0  0  0  0  0  0
  1  2  1  0
  2  3  2  0
  3  4  1  0
  4  5  1  0
  5  6  2  0
  6  7  1  0
  7  8  1  0
  8  9  1  0
  9 10  3  0
  8 11  2  0
 11 12  1  0
 11 13  1  0
  7 14  1  0
 14 15  2  0
 15 16  1  0
 16 17  1  0
 17 18  1  0
 18 19  1  0
 19 20  1  0
 20 21  1  0
 21 22  1  0
 22 23  2  0
 22 24  1  0
 20 25  1  0
 25 26  1  0
 16 27  2  0
 27 28  1  0
 28 29  1  0
 28 30  2  0
 30 31  1  0
 31 32  1  0
 32 33  1  0
 32 34  1  0
  6  2  1  0
  7 32  1  6
 13  5  1  0
 30 14  1  0
 26 17  1  0
M  CHG  1  24  -1
M  END
>  <shape_align_shape_tanimoto>  (2) 
0.51729030398702436

>  <shape_align_color_tanimoto>  (2) 
0.14179385169351044

>  <metric>  (2) 
color

>  <metric_score>  (2) 
0.142

>  <template_pid>  (2) 
5XMV

>  <template_shape_score>  (2) 
0.517

>  <template_color_score>  (2) 
0.142

>  <template_combo_score>  (2) 
0.330

$$$$
5XMV_combo_pose
     RDKit          3D

 34 38  0  0  0  0  0  0  0  0999 V2000
   88.6886   71.5442   33.6703 C   0  0  0  0  0  0  0  0  0  0  0  0
   88.6993   73.0002   33.4384 C   0  0  0  0  0  0  0  0  0  0  0  0
   88.9460   73.8769   34.4538 N   0  0  0  0  0  0  0  0  0  0  0  0
   88.8393   75.1119   34.0048 N   0  0  0  0  0  0  0  0  0  0  0  0
   88.5220   75.0420   32.6971 C   0  0  0  0  0  0  0  0  0  0  0  0
   88.4239   73.7342   32.2706 C   0  0  0  0  0  0  0  0  0  0  0  0
   88.1423   73.3108   30.8914 C   0  0  2  0  0  0  0  0  0  0  0  0
   87.8648   74.5475   30.0860 C   0  0  0  0  0  0  0  0  0  0  0  0
   87.4084   74.4302   28.6981 C   0  0  0  0  0  0  0  0  0  0  0  0
   87.0409   74.3483   27.5749 N   0  0  0  0  0  0  0  0  0  0  0  0
   87.9564   75.7783   30.5287 C   0  0  0  0  0  0  0  0  0  0  0  0
   87.6870   76.9071   29.6728 N   0  0  0  0  0  0  0  0  0  0  0  0
   88.2919   76.1063   31.8355 O   0  0  0  0  0  0  0  0  0  0  0  0
   87.1202   72.3188   30.7219 C   0  0  0  0  0  0  0  0  0  0  0  0
   85.8979   72.1516   31.3944 C   0  0  0  0  0  0  0  0  0  0  0  0
   85.0370   71.1147   31.1094 C   0  0  0  0  0  0  0  0  0  0  0  0
   83.8010   70.9809   31.7882 N   0  0  0  0  0  0  0  0  0  0  0  0
   83.0343   69.7248   31.8040 C   0  0  0  0  0  0  0  0  0  0  0  0
   81.8216   69.9425   30.9587 C   0  0  0  0  0  0  0  0  0  0  0  0
   81.1561   71.2654   31.1875 C   0  0  0  0  0  0  0  0  0  0  0  0
   79.6763   70.9915   31.4429 C   0  0  0  0  0  0  0  0  0  0  0  0
   79.4579   70.1380   32.6337 C   0  0  0  0  0  0  0  0  0  0  0  0
   79.5348   68.8917   32.6437 O   0  0  0  0  0  0  0  0  0  0  0  0
   79.1412   70.7762   33.8386 O   0  0  0  0  0  0  0  0  0  0  0  0
   81.6736   72.0812   32.3093 C   0  0  0  0  0  0  0  0  0  0  0  0
   83.1637   72.0774   32.5119 C   0  0  0  0  0  0  0  0  0  0  0  0
   85.3888   70.1972   30.1187 C   0  0  0  0  0  0  0  0  0  0  0  0
   86.5807   70.3299   29.4357 C   0  0  0  0  0  0  0  0  0  0  0  0
   86.9183   69.4309   28.4689 F   0  0  0  0  0  0  0  0  0  0  0  0
   87.4082   71.3924   29.7635 C   0  0  0  0  0  0  0  0  0  0  0  0
   88.7030   71.7657   29.1854 C   0  0  0  0  0  0  0  0  0  0  0  0
   89.3063   72.7033   30.1750 C   0  0  0  0  0  0  0  0  0  0  0  0
   90.1562   73.7606   29.4656 C   0  0  0  0  0  0  0  0  0  0  0  0
   90.2793   71.9656   31.0617 C   0  0  0  0  0  0  0  0  0  0  0  0
  1  2  1  0
  2  3  2  0
  3  4  1  0
  4  5  1  0
  5  6  2  0
  6  7  1  0
  7  8  1  0
  8  9  1  0
  9 10  3  0
  8 11  2  0
 11 12  1  0
 11 13  1  0
  7 14  1  0
 14 15  2  0
 15 16  1  0
 16 17  1  0
 17 18  1  0
 18 19  1  0
 19 20  1  0
 20 21  1  0
 21 22  1  0
 22 23  2  0
 22 24  1  0
 20 25  1  0
 25 26  1  0
 16 27  2  0
 27 28  1  0
 28 29  1  0
 28 30  2  0
 30 31  1  0
 31 32  1  0
 32 33  1  0
 32 34  1  0
  6  2  1  0
  7 32  1  6
 13  5  1  0
 30 14  1  0
 26 17  1  0
M  CHG  1  24  -1
M  END
>  <shape_align_shape_tanimoto>  (3) 
0.51729030398702436

>  <shape_align_color_tanimoto>  (3) 
0.14179385169351044

>  <metric>  (3) 
combo

>  <metric_score>  (3) 
0.330

>  <template_pid>  (3) 
5XMV

>  <template_shape_score>  (3) 
0.517

>  <template_color_score>  (3) 
0.142

>  <template_combo_score>  (3) 
0.330

$$$$
