4NHY_shape_pose
     RDKit          3D

 12 12  0  0  0  0  0  0  0  0999 V2000
    0.5355   77.8056   78.0933 O   0  0  0  0  0  0  0  0  0  0  0  0
    1.0601   76.9775   78.8943 C   0  0  0  0  0  0  0  0  0  0  0  0
    2.1981   77.4109   79.5611 O   0  0  0  0  0  0  0  0  0  0  0  0
    0.5054   75.6457   79.1073 C   0  0  0  0  0  0  0  0  0  0  0  0
   -0.6168   75.2642   78.4277 C   0  0  0  0  0  0  0  0  0  0  0  0
   -1.1728   73.9948   78.6099 C   0  0  0  0  0  0  0  0  0  0  0  0
   -0.5570   73.1684   79.4802 N   0  0  0  0  0  0  0  0  0  0  0  0
    0.5476   73.5072   80.1667 C   0  0  0  0  0  0  0  0  0  0  0  0
    1.1686   72.5686   81.0948 C   0  0  0  0  0  0  0  0  0  0  0  0
    2.1977   72.8266   81.7621 O   0  0  0  0  0  0  0  0  0  0  0  0
    0.6050   71.3119   81.2650 O   0  0  0  0  0  0  0  0  0  0  0  0
    1.0817   74.7648   79.9734 C   0  0  0  0  0  0  0  0  0  0  0  0
  1  2  2  0
  2  3  1  0
  2  4  1  0
  4  5  2  0
  5  6  1  0
  6  7  2  0
  7  8  1  0
  8  9  1  0
  9 10  2  0
  9 11  1  0
  8 12  2  0
 12  4  1  0
M  CHG  2   3  -1  11  -1
M  END
>  <shape_align_shape_tanimoto>  (1) 
0.46970425247505754

>  <shape_align_color_tanimoto>  (1) 
0.080452053991672018

>  <metric>  (1) 
shape

>  <metric_score>  (1) 
0.470

>  <template_pid>  (1) 
4NHY

>  <template_shape_score>  (1) 
0.470

>  <template_color_score>  (1) 
0.080

>  <template_combo_score>  (1) 
0.275

$$$$
4NHY_color_pose
     RDKit          3D

 12 12  0  0  0  0  0  0  0  0999 V2000
   -0.2132   77.5244   79.5428 O   0  0  0  0  0  0  0  0  0  0  0  0
    0.9365   77.4087   79.0441 C   0  0  0  0  0  0  0  0  0  0  0  0
    1.1523   76.4482   78.0670 O   0  0  0  0  0  0  0  0  0  0  0  0
    1.9905   78.2989   79.5245 C   0  0  0  0  0  0  0  0  0  0  0  0
    3.2709   78.2198   79.0159 C   0  0  0  0  0  0  0  0  0  0  0  0
    4.2623   79.0680   79.4780 C   0  0  0  0  0  0  0  0  0  0  0  0
    3.9405   79.9671   80.4332 N   0  0  0  0  0  0  0  0  0  0  0  0
    2.6867   80.0502   80.9366 C   0  0  0  0  0  0  0  0  0  0  0  0
    2.4150   81.0471   81.9668 C   0  0  0  0  0  0  0  0  0  0  0  0
    3.3953   81.7828   82.3268 O   0  0  0  0  0  0  0  0  0  0  0  0
    1.1553   81.1786   82.5177 O   0  0  0  0  0  0  0  0  0  0  0  0
    1.6713   79.2151   80.4949 C   0  0  0  0  0  0  0  0  0  0  0  0
  1  2  2  0
  2  3  1  0
  2  4  1  0
  4  5  2  0
  5  6  1  0
  6  7  2  0
  7  8  1  0
  8  9  1  0
  9 10  2  0
  9 11  1  0
  8 12  2  0
 12  4  1  0
M  CHG  2   3  -1  11  -1
M  END
>  <shape_align_shape_tanimoto>  (2) 
0.44500714840793737

>  <shape_align_color_tanimoto>  (2) 
0.13691033029445496

>  <metric>  (2) 
color

>  <metric_score>  (2) 
0.137

>  <template_pid>  (2) 
4NHY

>  <template_shape_score>  (2) 
0.445

>  <template_color_score>  (2) 
0.137

>  <template_combo_score>  (2) 
0.291

$$$$
4NHY_combo_pose
     RDKit          3D

 12 12  0  0  0  0  0  0  0  0999 V2000
   -0.2132   77.5244   79.5428 O   0  0  0  0  0  0  0  0  0  0  0  0
    0.9365   77.4087   79.0441 C   0  0  0  0  0  0  0  0  0  0  0  0
    1.1523   76.4482   78.0670 O   0  0  0  0  0  0  0  0  0  0  0  0
    1.9905   78.2989   79.5245 C   0  0  0  0  0  0  0  0  0  0  0  0
    3.2709   78.2198   79.0159 C   0  0  0  0  0  0  0  0  0  0  0  0
    4.2623   79.0680   79.4780 C   0  0  0  0  0  0  0  0  0  0  0  0
    3.9405   79.9671   80.4332 N   0  0  0  0  0  0  0  0  0  0  0  0
    2.6867   80.0502   80.9366 C   0  0  0  0  0  0  0  0  0  0  0  0
    2.4150   81.0471   81.9668 C   0  0  0  0  0  0  0  0  0  0  0  0
    3.3953   81.7828   82.3268 O   0  0  0  0  0  0  0  0  0  0  0  0
    1.1553   81.1786   82.5177 O   0  0  0  0  0  0  0  0  0  0  0  0
    1.6713   79.2151   80.4949 C   0  0  0  0  0  0  0  0  0  0  0  0
  1  2  2  0
  2  3  1  0
  2  4  1  0
  4  5  2  0
  5  6  1  0
  6  7  2  0
  7  8  1  0
  8  9  1  0
  9 10  2  0
  9 11  1  0
  8 12  2  0
 12  4  1  0
M  CHG  2   3  -1  11  -1
M  END
>  <shape_align_shape_tanimoto>  (3) 
0.44500714840793737

>  <shape_align_color_tanimoto>  (3) 
0.13691033029445496

>  <metric>  (3) 
combo

>  <metric_score>  (3) 
0.291

>  <template_pid>  (3) 
4NHY

>  <template_shape_score>  (3) 
0.445

>  <template_color_score>  (3) 
0.137

>  <template_combo_score>  (3) 
0.291

$$$$
