4Q7W_shape_pose
     RDKit          3D

 30 33  0  0  0  0  0  0  0  0999 V2000
   -3.2123   11.3781   14.4650 N   0  0  0  0  0  0  0  0  0  0  0  0
   -1.6964   10.6671   14.0610 S   0  0  0  0  0  0  0  0  0  0  0  0
   -1.1637   11.2606   12.7726 O   0  0  0  0  0  0  0  0  0  0  0  0
   -0.7007   11.0859   15.1251 O   0  0  0  0  0  0  0  0  0  0  0  0
   -1.7895    8.9186   13.9509 C   0  0  0  0  0  0  0  0  0  0  0  0
   -1.5834    8.1045   15.0662 C   0  0  0  0  0  0  0  0  0  0  0  0
   -1.6559    6.7146   14.9552 C   0  0  0  0  0  0  0  0  0  0  0  0
   -1.9325    6.1142   13.7449 C   0  0  0  0  0  0  0  0  0  0  0  0
   -2.0177    4.6935   13.5319 C   0  0  0  0  0  0  0  0  0  0  0  0
   -1.1621    4.1745   12.7346 O   0  0  0  0  0  0  0  0  0  0  0  0
   -2.9481    3.8071   14.1096 N   0  0  0  0  0  0  0  0  0  0  0  0
   -2.8165    2.3915   13.7257 C   0  0  0  0  0  0  0  0  0  0  0  0
   -2.7557    1.6369   15.0568 C   0  0  0  0  0  0  0  0  0  0  0  0
   -4.1697    1.7298   15.5829 C   0  0  0  0  0  0  0  0  0  0  0  0
   -4.8359    0.6281   16.0583 C   0  0  0  0  0  0  0  0  0  0  0  0
   -6.1260    0.7528   16.5291 C   0  0  0  0  0  0  0  0  0  0  0  0
   -6.7874   -0.3736   17.0086 O   0  0  0  0  0  0  0  0  0  0  0  0
   -6.6955    2.0056   16.4971 C   0  0  0  0  0  0  0  0  0  0  0  0
   -8.0143    2.0958   16.9852 O   0  0  0  0  0  0  0  0  0  0  0  0
   -6.0277    3.1250   16.0172 C   0  0  0  0  0  0  0  0  0  0  0  0
   -4.7216    2.9967   15.5414 C   0  0  0  0  0  0  0  0  0  0  0  0
   -3.9957    4.1847   15.0245 C   0  0  2  0  0  0  0  0  0  0  0  0
   -4.9701    5.1535   14.4260 C   0  0  0  0  0  0  0  0  0  0  0  0
   -5.4242    6.2558   15.1388 C   0  0  0  0  0  0  0  0  0  0  0  0
   -6.3140    7.1668   14.6357 C   0  0  0  0  0  0  0  0  0  0  0  0
   -6.7760    6.9675   13.3507 C   0  0  0  0  0  0  0  0  0  0  0  0
   -6.3536    5.8753   12.5868 C   0  0  0  0  0  0  0  0  0  0  0  0
   -5.4481    4.9737   13.1373 C   0  0  0  0  0  0  0  0  0  0  0  0
   -2.1385    6.9348   12.6306 C   0  0  0  0  0  0  0  0  0  0  0  0
   -2.0660    8.3086   12.7415 C   0  0  0  0  0  0  0  0  0  0  0  0
  1  2  1  0
  2  3  2  0
  2  4  2  0
  2  5  1  0
  5  6  2  0
  6  7  1  0
  7  8  2  0
  8  9  1  0
  9 10  2  0
  9 11  1  0
 11 12  1  0
 12 13  1  0
 13 14  1  0
 14 15  2  0
 15 16  1  0
 16 17  1  0
 16 18  2  0
 18 19  1  0
 18 20  1  0
 20 21  2  0
 21 22  1  0
 22 23  1  6
 23 24  2  0
 24 25  1  0
 25 26  2  0
 26 27  1  0
 27 28  2  0
  8 29  1  0
 29 30  2  0
 30  5  1  0
 22 11  1  0
 28 23  1  0
 21 14  1  0
M  END
>  <shape_align_shape_tanimoto>  (1) 
0.66525393242638731

>  <shape_align_color_tanimoto>  (1) 
0.10252605121507005

>  <metric>  (1) 
shape

>  <metric_score>  (1) 
0.665

>  <template_pid>  (1) 
4Q7W

>  <template_shape_score>  (1) 
0.665

>  <template_color_score>  (1) 
0.103

>  <template_combo_score>  (1) 
0.384

$$$$
4Q7W_color_pose
     RDKit          3D

 30 33  0  0  0  0  0  0  0  0999 V2000
    0.3803   10.1930   12.4172 N   0  0  0  0  0  0  0  0  0  0  0  0
   -0.7103   10.2813   13.7791 S   0  0  0  0  0  0  0  0  0  0  0  0
    0.1853   10.4070   14.9873 O   0  0  0  0  0  0  0  0  0  0  0  0
   -1.4574   11.5689   13.6758 O   0  0  0  0  0  0  0  0  0  0  0  0
   -1.7148    8.8789   13.8874 C   0  0  0  0  0  0  0  0  0  0  0  0
   -1.4098    7.8302   14.7298 C   0  0  0  0  0  0  0  0  0  0  0  0
   -2.2089    6.6821   14.7898 C   0  0  0  0  0  0  0  0  0  0  0  0
   -3.3326    6.5217   14.0254 C   0  0  0  0  0  0  0  0  0  0  0  0
   -4.2066    5.3915   13.9559 C   0  0  0  0  0  0  0  0  0  0  0  0
   -5.2992    5.5552   13.2944 O   0  0  0  0  0  0  0  0  0  0  0  0
   -4.0567    4.0890   14.5074 N   0  0  0  0  0  0  0  0  0  0  0  0
   -2.9532    3.6633   15.3328 C   0  0  0  0  0  0  0  0  0  0  0  0
   -2.9979    2.1371   15.5510 C   0  0  0  0  0  0  0  0  0  0  0  0
   -4.3575    1.7475   16.0007 C   0  0  0  0  0  0  0  0  0  0  0  0
   -4.5866    0.9067   17.0756 C   0  0  0  0  0  0  0  0  0  0  0  0
   -5.8663    0.5676   17.4611 C   0  0  0  0  0  0  0  0  0  0  0  0
   -6.1101   -0.2893   18.5542 O   0  0  0  0  0  0  0  0  0  0  0  0
   -6.9146    1.1066   16.7280 C   0  0  0  0  0  0  0  0  0  0  0  0
   -8.2001    0.7664   17.1125 O   0  0  0  0  0  0  0  0  0  0  0  0
   -6.7021    1.9447   15.6562 C   0  0  0  0  0  0  0  0  0  0  0  0
   -5.4030    2.2749   15.2802 C   0  0  0  0  0  0  0  0  0  0  0  0
   -5.1070    3.1317   14.1204 C   0  0  2  0  0  0  0  0  0  0  0  0
   -4.6437    2.3170   12.9563 C   0  0  0  0  0  0  0  0  0  0  0  0
   -4.9122    0.9692   12.9251 C   0  0  0  0  0  0  0  0  0  0  0  0
   -4.4774    0.2192   11.8522 C   0  0  0  0  0  0  0  0  0  0  0  0
   -3.7802    0.7655   10.8009 C   0  0  0  0  0  0  0  0  0  0  0  0
   -3.5075    2.1047   10.8211 C   0  0  0  0  0  0  0  0  0  0  0  0
   -3.9405    2.8682   11.8965 C   0  0  0  0  0  0  0  0  0  0  0  0
   -3.6223    7.6069   13.1758 C   0  0  0  0  0  0  0  0  0  0  0  0
   -2.8442    8.7353   13.1120 C   0  0  0  0  0  0  0  0  0  0  0  0
  1  2  1  0
  2  3  2  0
  2  4  2  0
  2  5  1  0
  5  6  2  0
  6  7  1  0
  7  8  2  0
  8  9  1  0
  9 10  2  0
  9 11  1  0
 11 12  1  0
 12 13  1  0
 13 14  1  0
 14 15  2  0
 15 16  1  0
 16 17  1  0
 16 18  2  0
 18 19  1  0
 18 20  1  0
 20 21  2  0
 21 22  1  0
 22 23  1  6
 23 24  2  0
 24 25  1  0
 25 26  2  0
 26 27  1  0
 27 28  2  0
  8 29  1  0
 29 30  2  0
 30  5  1  0
 22 11  1  0
 28 23  1  0
 21 14  1  0
M  END
>  <shape_align_shape_tanimoto>  (2) 
0.5853703481276461

>  <shape_align_color_tanimoto>  (2) 
0.19403907271961918

>  <metric>  (2) 
color

>  <metric_score>  (2) 
0.194

>  <template_pid>  (2) 
4Q7W

>  <template_shape_score>  (2) 
0.585

>  <template_color_score>  (2) 
0.194

>  <template_combo_score>  (2) 
0.390

$$$$
4Q7W_combo_pose
     RDKit          3D

 30 33  0  0  0  0  0  0  0  0999 V2000
   -5.0053   -1.0220   16.1162 N   0  0  0  0  0  0  0  0  0  0  0  0
   -5.8300    0.3312   16.8471 S   0  0  0  0  0  0  0  0  0  0  0  0
   -7.2987    0.0573   16.9096 O   0  0  0  0  0  0  0  0  0  0  0  0
   -5.2937    0.3974   18.2580 O   0  0  0  0  0  0  0  0  0  0  0  0
   -5.4339    1.8104   16.0143 C   0  0  0  0  0  0  0  0  0  0  0  0
   -6.1896    2.1843   14.9304 C   0  0  0  0  0  0  0  0  0  0  0  0
   -5.9385    3.3414   14.2251 C   0  0  0  0  0  0  0  0  0  0  0  0
   -4.8817    4.2126   14.5816 C   0  0  0  0  0  0  0  0  0  0  0  0
   -4.7161    5.3609   13.7660 C   0  0  0  0  0  0  0  0  0  0  0  0
   -5.7163    5.6221   12.9634 O   0  0  0  0  0  0  0  0  0  0  0  0
   -3.6862    6.3179   13.6131 N   0  0  0  0  0  0  0  0  0  0  0  0
   -4.0462    7.3132   12.5493 C   0  0  0  0  0  0  0  0  0  0  0  0
   -2.7866    7.9127   11.9502 C   0  0  0  0  0  0  0  0  0  0  0  0
   -2.0678    8.6378   13.0838 C   0  0  0  0  0  0  0  0  0  0  0  0
   -1.6249    9.9212   12.9388 C   0  0  0  0  0  0  0  0  0  0  0  0
   -1.0242   10.5180   14.0246 C   0  0  0  0  0  0  0  0  0  0  0  0
   -0.5611   11.8084   13.9313 O   0  0  0  0  0  0  0  0  0  0  0  0
   -0.8925    9.8038   15.2096 C   0  0  0  0  0  0  0  0  0  0  0  0
   -0.2837   10.4336   16.2824 O   0  0  0  0  0  0  0  0  0  0  0  0
   -1.3603    8.4873   15.3160 C   0  0  0  0  0  0  0  0  0  0  0  0
   -1.9665    7.8808   14.2233 C   0  0  0  0  0  0  0  0  0  0  0  0
   -2.4549    6.4445   14.3094 C   0  0  2  0  0  0  0  0  0  0  0  0
   -1.3459    5.5799   13.7947 C   0  0  0  0  0  0  0  0  0  0  0  0
   -1.5187    4.3023   13.3298 C   0  0  0  0  0  0  0  0  0  0  0  0
   -0.4464    3.5217   12.8842 C   0  0  0  0  0  0  0  0  0  0  0  0
    0.8341    4.0084   12.8942 C   0  0  0  0  0  0  0  0  0  0  0  0
    1.0275    5.2867   13.3553 C   0  0  0  0  0  0  0  0  0  0  0  0
   -0.0344    6.0656   13.7994 C   0  0  0  0  0  0  0  0  0  0  0  0
   -4.1523    3.8116   15.6612 C   0  0  0  0  0  0  0  0  0  0  0  0
   -4.4027    2.6392   16.3795 C   0  0  0  0  0  0  0  0  0  0  0  0
  1  2  1  0
  2  3  2  0
  2  4  2  0
  2  5  1  0
  5  6  2  0
  6  7  1  0
  7  8  2  0
  8  9  1  0
  9 10  2  0
  9 11  1  0
 11 12  1  0
 12 13  1  0
 13 14  1  0
 14 15  2  0
 15 16  1  0
 16 17  1  0
 16 18  2  0
 18 19  1  0
 18 20  1  0
 20 21  2  0
 21 22  1  0
 22 23  1  6
 23 24  2  0
 24 25  1  0
 25 26  2  0
 26 27  1  0
 27 28  2  0
  8 29  1  0
 29 30  2  0
 30  5  1  0
 22 11  1  0
 28 23  1  0
 21 14  1  0
M  END
>  <shape_align_shape_tanimoto>  (3) 
0.64873365076084799

>  <shape_align_color_tanimoto>  (3) 
0.19309895882070585

>  <metric>  (3) 
combo

>  <metric_score>  (3) 
0.421

>  <template_pid>  (3) 
4Q7W

>  <template_shape_score>  (3) 
0.649

>  <template_color_score>  (3) 
0.193

>  <template_combo_score>  (3) 
0.421

$$$$
