1UJJ_shape_pose
     RDKit          3D

 56 55  0  0  0  0  0  0  0  0999 V2000
    9.9498   -6.3541   -8.8374 C   0  0  0  0  0  0  0  0  0  0  0  0
    8.7806   -7.1909   -8.3812 C   0  0  0  0  0  0  0  0  0  0  0  0
    8.5608   -7.1140   -6.8941 C   0  0  2  0  0  0  0  0  0  0  0  0
    8.2926   -5.7028   -6.4322 C   0  0  0  0  0  0  0  0  0  0  0  0
    9.6463   -7.7991   -6.1169 C   0  0  2  0  0  0  0  0  0  0  0  0
    9.7309   -9.1838   -6.4757 N   0  0  0  0  0  0  0  0  0  0  0  0
   10.8854   -9.9962   -6.3747 C   0  0  0  0  0  0  0  0  0  0  0  0
   11.9437   -9.4909   -5.9147 O   0  0  0  0  0  0  0  0  0  0  0  0
   10.8501  -11.3926   -6.7936 C   0  0  2  0  0  0  0  0  0  0  0  0
    9.5831  -12.1428   -6.4144 C   0  0  0  0  0  0  0  0  0  0  0  0
    9.7025  -13.5129   -7.0127 C   0  0  0  0  0  0  0  0  0  0  0  0
   10.6366  -13.8533   -7.7802 O   0  0  0  0  0  0  0  0  0  0  0  0
    8.6975  -14.4479   -6.6778 O   0  0  0  0  0  0  0  0  0  0  0  0
   12.0596  -12.0476   -6.3466 N   0  0  0  0  0  0  0  0  0  0  0  0
   12.1690  -13.1324   -5.4560 C   0  0  0  0  0  0  0  0  0  0  0  0
   11.1820  -13.6954   -4.8837 O   0  0  0  0  0  0  0  0  0  0  0  0
   13.4934  -13.7345   -5.0953 C   0  0  1  0  0  0  0  0  0  0  0  0
   14.6107  -12.9969   -5.5919 N   0  0  0  0  0  0  0  0  0  0  0  0
   13.5717  -13.8026   -3.5880 C   0  0  0  0  0  0  0  0  0  0  0  0
   14.8661  -14.4010   -3.1885 C   0  0  0  0  0  0  0  0  0  0  0  0
   15.9299  -13.7175   -3.0524 O   0  0  0  0  0  0  0  0  0  0  0  0
   15.0091  -15.7784   -2.9306 O   0  0  0  0  0  0  0  0  0  0  0  0
    9.3401   -7.6581   -4.6282 C   0  0  0  0  0  0  0  0  0  0  0  0
    9.1395   -6.5486   -4.1061 O   0  0  0  0  0  0  0  0  0  0  0  0
    9.2985   -8.8573   -3.8830 N   0  0  0  0  0  0  0  0  0  0  0  0
    9.0259   -8.9690   -2.4748 C   0  0  1  0  0  0  0  0  0  0  0  0
    8.0736  -10.0582   -2.1683 C   0  0  0  0  0  0  0  0  0  0  0  0
    8.5676  -11.3001   -2.5681 O   0  0  0  0  0  0  0  0  0  0  0  0
   10.3061   -9.0291   -1.6870 C   0  0  0  0  0  0  0  0  0  0  0  0
   10.2962   -9.3548   -0.4561 O   0  0  0  0  0  0  0  0  0  0  0  0
   11.4885   -8.7017   -2.3866 N   0  0  0  0  0  0  0  0  0  0  0  0
   12.8212   -8.7155   -1.7624 C   0  0  1  0  0  0  0  0  0  0  0  0
   13.8494   -9.0648   -2.7905 C   0  0  0  0  0  0  0  0  0  0  0  0
   15.2630   -9.1390   -2.3707 C   0  0  0  0  0  0  0  0  0  0  0  0
   16.0743   -9.5031   -3.6403 C   0  0  0  0  0  0  0  0  0  0  0  0
   15.5776  -10.2356   -1.3905 C   0  0  0  0  0  0  0  0  0  0  0  0
   13.1156   -7.3108   -1.2787 C   0  0  0  0  0  0  0  0  0  0  0  0
   12.3979   -6.3750   -1.7554 O   0  0  0  0  0  0  0  0  0  0  0  0
   14.1426   -7.0348   -0.3209 N   0  0  0  0  0  0  0  0  0  0  0  0
   14.2882   -5.6236    0.0439 C   0  0  1  0  0  0  0  0  0  0  0  0
   13.8303   -5.3789    1.4564 C   0  0  0  0  0  0  0  0  0  0  0  0
   12.4592   -5.6617    1.8483 C   0  0  0  0  0  0  0  0  0  0  0  0
   11.9909   -7.0817    1.7025 C   0  0  0  0  0  0  0  0  0  0  0  0
   11.3914   -4.7477    1.2968 C   0  0  0  0  0  0  0  0  0  0  0  0
   15.6757   -5.1221   -0.0761 C   0  0  0  0  0  0  0  0  0  0  0  0
   15.8394   -3.8785    0.0749 O   0  0  0  0  0  0  0  0  0  0  0  0
   16.8200   -5.8951   -0.3355 N   0  0  0  0  0  0  0  0  0  0  0  0
   18.1233   -5.2368   -0.4223 C   0  0  1  0  0  0  0  0  0  0  0  0
   19.0768   -5.7000    0.6072 C   0  0  0  0  0  0  0  0  0  0  0  0
   20.4026   -5.0065    0.4792 C   0  0  0  0  0  0  0  0  0  0  0  0
   20.2262   -3.5170    0.6342 C   0  0  0  0  0  0  0  0  0  0  0  0
   21.5823   -2.8061    0.5105 C   0  0  0  0  0  0  0  0  0  0  0  0
   21.3730   -1.3756    0.6745 N   0  0  0  0  0  0  0  0  0  0  0  0
   18.6696   -5.5064   -1.7668 C   0  0  0  0  0  0  0  0  0  0  0  0
   19.5992   -4.8584   -2.3051 O   0  0  0  0  0  0  0  0  0  0  0  0
   18.1409   -6.5568   -2.5432 O   0  0  0  0  0  0  0  0  0  0  0  0
  1  2  1  0
  2  3  1  0
  3  4  1  1
  3  5  1  0
  5  6  1  6
  6  7  1  0
  7  8  2  0
  7  9  1  0
  9 10  1  1
 10 11  1  0
 11 12  2  0
 11 13  1  0
  9 14  1  0
 14 15  1  0
 15 16  2  0
 15 17  1  0
 17 18  1  1
 17 19  1  0
 19 20  1  0
 20 21  2  0
 20 22  1  0
  5 23  1  0
 23 24  2  0
 23 25  1  0
 25 26  1  0
 26 27  1  6
 27 28  1  0
 26 29  1  0
 29 30  2  0
 29 31  1  0
 31 32  1  0
 32 33  1  6
 33 34  1  0
 34 35  1  0
 34 36  1  0
 32 37  1  0
 37 38  2  0
 37 39  1  0
 39 40  1  0
 40 41  1  1
 41 42  1  0
 42 43  1  0
 42 44  1  0
 40 45  1  0
 45 46  2  0
 45 47  1  0
 47 48  1  0
 48 49  1  1
 49 50  1  0
 50 51  1  0
 51 52  1  0
 52 53  1  0
 48 54  1  0
 54 55  2  0
 54 56  1  0
M  CHG  5  13  -1  18   1  22  -1  53   1  56  -1
M  END
>  <shape_align_shape_tanimoto>  (1) 
0.42272793476826287

>  <shape_align_color_tanimoto>  (1) 
0.024380436382041178

>  <metric>  (1) 
shape

>  <metric_score>  (1) 
0.423

>  <template_pid>  (1) 
1UJJ

>  <template_shape_score>  (1) 
0.423

>  <template_color_score>  (1) 
0.024

>  <template_combo_score>  (1) 
0.224

$$$$
1UJJ_color_pose
     RDKit          3D

 56 55  0  0  0  0  0  0  0  0999 V2000
   15.3701   -4.7641   -2.2554 C   0  0  0  0  0  0  0  0  0  0  0  0
   15.9041   -5.6794   -1.1887 C   0  0  0  0  0  0  0  0  0  0  0  0
   15.4742   -5.2196    0.1799 C   0  0  2  0  0  0  0  0  0  0  0  0
   16.0759   -6.1686    1.2390 C   0  0  0  0  0  0  0  0  0  0  0  0
   13.9960   -5.1571    0.3565 C   0  0  2  0  0  0  0  0  0  0  0  0
   13.7220   -4.6535    1.7159 N   0  0  0  0  0  0  0  0  0  0  0  0
   12.5382   -3.8820    1.8405 C   0  0  0  0  0  0  0  0  0  0  0  0
   11.8351   -3.7317    0.7779 O   0  0  0  0  0  0  0  0  0  0  0  0
   12.0327   -3.2402    3.0499 C   0  0  2  0  0  0  0  0  0  0  0  0
   12.0032   -4.0633    4.2888 C   0  0  0  0  0  0  0  0  0  0  0  0
   11.1658   -5.2810    4.1578 C   0  0  0  0  0  0  0  0  0  0  0  0
   10.5722   -5.6324    3.1162 O   0  0  0  0  0  0  0  0  0  0  0  0
   11.0528   -6.0762    5.3081 O   0  0  0  0  0  0  0  0  0  0  0  0
   10.7015   -2.6972    2.7713 N   0  0  0  0  0  0  0  0  0  0  0  0
   10.4158   -1.3123    2.6969 C   0  0  0  0  0  0  0  0  0  0  0  0
   11.3027   -0.4255    2.8667 O   0  0  0  0  0  0  0  0  0  0  0  0
    9.0467   -0.8348    2.4141 C   0  0  1  0  0  0  0  0  0  0  0  0
    8.1630   -1.9850    2.3772 N   0  0  0  0  0  0  0  0  0  0  0  0
    8.4841    0.1244    3.4107 C   0  0  0  0  0  0  0  0  0  0  0  0
    9.2681    1.3693    3.5426 C   0  0  0  0  0  0  0  0  0  0  0  0
   10.2707    1.5000    4.2853 O   0  0  0  0  0  0  0  0  0  0  0  0
    8.9058    2.5111    2.8061 O   0  0  0  0  0  0  0  0  0  0  0  0
   13.3134   -6.4919    0.2382 C   0  0  0  0  0  0  0  0  0  0  0  0
   12.9539   -7.0122    1.3424 O   0  0  0  0  0  0  0  0  0  0  0  0
   13.0749   -7.1203   -1.0071 N   0  0  0  0  0  0  0  0  0  0  0  0
   12.3849   -8.4139   -1.0904 C   0  0  1  0  0  0  0  0  0  0  0  0
   10.8630   -8.1292   -0.9611 C   0  0  0  0  0  0  0  0  0  0  0  0
   10.6006   -7.4937    0.2507 O   0  0  0  0  0  0  0  0  0  0  0  0
   12.6118   -9.0470   -2.3803 C   0  0  0  0  0  0  0  0  0  0  0  0
   13.4783   -8.5581   -3.1510 O   0  0  0  0  0  0  0  0  0  0  0  0
   11.8482  -10.2020   -2.7628 N   0  0  0  0  0  0  0  0  0  0  0  0
   11.9622  -10.8786   -4.0124 C   0  0  1  0  0  0  0  0  0  0  0  0
   12.3350  -12.2897   -3.9050 C   0  0  0  0  0  0  0  0  0  0  0  0
   11.4919  -13.2497   -3.1734 C   0  0  0  0  0  0  0  0  0  0  0  0
   11.2498  -13.0443   -1.7294 C   0  0  0  0  0  0  0  0  0  0  0  0
   12.2035  -14.6127   -3.3229 C   0  0  0  0  0  0  0  0  0  0  0  0
   10.7293  -10.6477   -4.8529 C   0  0  0  0  0  0  0  0  0  0  0  0
   10.6038  -11.2456   -5.9871 O   0  0  0  0  0  0  0  0  0  0  0  0
    9.7670   -9.7757   -4.3409 N   0  0  0  0  0  0  0  0  0  0  0  0
    8.4863   -9.4062   -4.9473 C   0  0  1  0  0  0  0  0  0  0  0  0
    7.3654   -9.7915   -4.0601 C   0  0  0  0  0  0  0  0  0  0  0  0
    5.9683   -9.5316   -4.4248 C   0  0  0  0  0  0  0  0  0  0  0  0
    5.4978  -10.1390   -5.7325 C   0  0  0  0  0  0  0  0  0  0  0  0
    5.3969   -8.1827   -4.2458 C   0  0  0  0  0  0  0  0  0  0  0  0
    8.5871   -8.0015   -5.3686 C   0  0  0  0  0  0  0  0  0  0  0  0
    7.5856   -7.4204   -5.7831 O   0  0  0  0  0  0  0  0  0  0  0  0
    9.8107   -7.2434   -5.3302 N   0  0  0  0  0  0  0  0  0  0  0  0
    9.9841   -5.9058   -5.6807 C   0  0  1  0  0  0  0  0  0  0  0  0
   10.9817   -5.5153   -6.6711 C   0  0  0  0  0  0  0  0  0  0  0  0
   12.4124   -5.7509   -6.5224 C   0  0  0  0  0  0  0  0  0  0  0  0
   12.9716   -7.1189   -6.4487 C   0  0  0  0  0  0  0  0  0  0  0  0
   14.5272   -7.0560   -6.3483 C   0  0  0  0  0  0  0  0  0  0  0  0
   14.9839   -8.4229   -6.2854 N   0  0  0  0  0  0  0  0  0  0  0  0
    8.6191   -5.2820   -6.0963 C   0  0  0  0  0  0  0  0  0  0  0  0
    8.4407   -5.0410   -7.3176 O   0  0  0  0  0  0  0  0  0  0  0  0
    7.6718   -5.0188   -5.1128 O   0  0  0  0  0  0  0  0  0  0  0  0
  1  2  1  0
  2  3  1  0
  3  4  1  1
  3  5  1  0
  5  6  1  1
  6  7  1  0
  7  8  2  0
  7  9  1  0
  9 10  1  1
 10 11  1  0
 11 12  2  0
 11 13  1  0
  9 14  1  0
 14 15  1  0
 15 16  2  0
 15 17  1  0
 17 18  1  1
 17 19  1  0
 19 20  1  0
 20 21  2  0
 20 22  1  0
  5 23  1  0
 23 24  2  0
 23 25  1  0
 25 26  1  0
 26 27  1  6
 27 28  1  0
 26 29  1  0
 29 30  2  0
 29 31  1  0
 31 32  1  0
 32 33  1  1
 33 34  1  0
 34 35  1  0
 34 36  1  0
 32 37  1  0
 37 38  2  0
 37 39  1  0
 39 40  1  0
 40 41  1  1
 41 42  1  0
 42 43  1  0
 42 44  1  0
 40 45  1  0
 45 46  2  0
 45 47  1  0
 47 48  1  0
 48 49  1  6
 49 50  1  0
 50 51  1  0
 51 52  1  0
 52 53  1  0
 48 54  1  0
 54 55  2  0
 54 56  1  0
M  CHG  5  13  -1  18   1  22  -1  53   1  56  -1
M  END
>  <shape_align_shape_tanimoto>  (2) 
0.35083349842816031

>  <shape_align_color_tanimoto>  (2) 
0.055188275572858887

>  <metric>  (2) 
color

>  <metric_score>  (2) 
0.055

>  <template_pid>  (2) 
1UJJ

>  <template_shape_score>  (2) 
0.351

>  <template_color_score>  (2) 
0.055

>  <template_combo_score>  (2) 
0.203

$$$$
1UJJ_combo_pose
     RDKit          3D

 56 55  0  0  0  0  0  0  0  0999 V2000
   14.8333   -3.3482   -0.9334 C   0  0  0  0  0  0  0  0  0  0  0  0
   15.0366   -4.3429    0.2290 C   0  0  0  0  0  0  0  0  0  0  0  0
   14.9292   -5.7488   -0.2457 C   0  0  2  0  0  0  0  0  0  0  0  0
   15.9793   -5.9891   -1.3037 C   0  0  0  0  0  0  0  0  0  0  0  0
   13.5808   -6.1354   -0.8076 C   0  0  2  0  0  0  0  0  0  0  0  0
   12.4944   -6.0513    0.1214 N   0  0  0  0  0  0  0  0  0  0  0  0
   12.5255   -6.0934    1.5222 C   0  0  0  0  0  0  0  0  0  0  0  0
   13.5730   -6.2349    2.2282 O   0  0  0  0  0  0  0  0  0  0  0  0
   11.2593   -5.9686    2.2787 C   0  0  2  0  0  0  0  0  0  0  0  0
   11.0963   -7.2280    3.1642 C   0  0  0  0  0  0  0  0  0  0  0  0
    9.8419   -7.1534    3.9368 C   0  0  0  0  0  0  0  0  0  0  0  0
    8.7042   -7.4173    3.4819 O   0  0  0  0  0  0  0  0  0  0  0  0
    9.8953   -6.7587    5.2890 O   0  0  0  0  0  0  0  0  0  0  0  0
   10.0900   -5.7474    1.4989 N   0  0  0  0  0  0  0  0  0  0  0  0
    9.1451   -4.7603    1.9552 C   0  0  0  0  0  0  0  0  0  0  0  0
    9.4164   -4.1709    3.0211 O   0  0  0  0  0  0  0  0  0  0  0  0
    7.9144   -4.4708    1.1878 C   0  0  1  0  0  0  0  0  0  0  0  0
    8.1038   -4.8605   -0.2096 N   0  0  0  0  0  0  0  0  0  0  0  0
    6.7269   -5.2577    1.7011 C   0  0  0  0  0  0  0  0  0  0  0  0
    6.3791   -4.9952    3.1023 C   0  0  0  0  0  0  0  0  0  0  0  0
    6.9571   -4.1739    3.8488 O   0  0  0  0  0  0  0  0  0  0  0  0
    5.3233   -5.7155    3.6527 O   0  0  0  0  0  0  0  0  0  0  0  0
   13.6598   -7.4250   -1.4955 C   0  0  0  0  0  0  0  0  0  0  0  0
   14.4604   -7.7108   -2.4231 O   0  0  0  0  0  0  0  0  0  0  0  0
   12.7654   -8.4477   -1.0851 N   0  0  0  0  0  0  0  0  0  0  0  0
   12.6978   -9.7758   -1.6346 C   0  0  1  0  0  0  0  0  0  0  0  0
   13.2362  -10.7723   -0.6049 C   0  0  0  0  0  0  0  0  0  0  0  0
   14.5489  -10.4887   -0.2745 O   0  0  0  0  0  0  0  0  0  0  0  0
   11.3273  -10.2006   -2.0154 C   0  0  0  0  0  0  0  0  0  0  0  0
   11.0840  -11.3481   -2.4669 O   0  0  0  0  0  0  0  0  0  0  0  0
   10.2766   -9.2836   -1.8577 N   0  0  0  0  0  0  0  0  0  0  0  0
    8.8767   -9.5915   -2.1767 C   0  0  1  0  0  0  0  0  0  0  0  0
    7.9934   -9.3579   -1.0060 C   0  0  0  0  0  0  0  0  0  0  0  0
    6.5407   -9.6499   -1.2148 C   0  0  0  0  0  0  0  0  0  0  0  0
    6.2755  -11.0817   -1.5979 C   0  0  0  0  0  0  0  0  0  0  0  0
    5.7966   -9.4390    0.1207 C   0  0  0  0  0  0  0  0  0  0  0  0
    8.4803   -8.8606   -3.3988 C   0  0  0  0  0  0  0  0  0  0  0  0
    7.3094   -8.9536   -3.8729 O   0  0  0  0  0  0  0  0  0  0  0  0
    9.3758   -8.0084   -4.1275 N   0  0  0  0  0  0  0  0  0  0  0  0
    8.8863   -7.3036   -5.3555 C   0  0  1  0  0  0  0  0  0  0  0  0
    9.1636   -5.8584   -5.2137 C   0  0  0  0  0  0  0  0  0  0  0  0
    8.7900   -4.8862   -6.2589 C   0  0  0  0  0  0  0  0  0  0  0  0
    9.4099   -5.0163   -7.5971 C   0  0  0  0  0  0  0  0  0  0  0  0
    9.0984   -3.4843   -5.7194 C   0  0  0  0  0  0  0  0  0  0  0  0
    9.4746   -8.0381   -6.4794 C   0  0  0  0  0  0  0  0  0  0  0  0
    9.1641   -7.8772   -7.7006 O   0  0  0  0  0  0  0  0  0  0  0  0
   10.4910   -9.0389   -6.2733 N   0  0  0  0  0  0  0  0  0  0  0  0
   11.0767   -9.7759   -7.3826 C   0  0  1  0  0  0  0  0  0  0  0  0
   12.5643   -9.4737   -7.3911 C   0  0  0  0  0  0  0  0  0  0  0  0
   13.2557  -10.1981   -8.5162 C   0  0  0  0  0  0  0  0  0  0  0  0
   14.7216   -9.8775   -8.5227 C   0  0  0  0  0  0  0  0  0  0  0  0
   15.0251   -8.4159   -8.7002 C   0  0  0  0  0  0  0  0  0  0  0  0
   16.4807   -8.2118   -8.7069 N   0  0  0  0  0  0  0  0  0  0  0  0
   10.8818  -11.2198   -7.1003 C   0  0  0  0  0  0  0  0  0  0  0  0
   11.0142  -12.0972   -8.0019 O   0  0  0  0  0  0  0  0  0  0  0  0
   10.5453  -11.6886   -5.8382 O   0  0  0  0  0  0  0  0  0  0  0  0
  1  2  1  0
  2  3  1  0
  3  4  1  6
  3  5  1  0
  5  6  1  1
  6  7  1  0
  7  8  2  0
  7  9  1  0
  9 10  1  6
 10 11  1  0
 11 12  2  0
 11 13  1  0
  9 14  1  0
 14 15  1  0
 15 16  2  0
 15 17  1  0
 17 18  1  6
 17 19  1  0
 19 20  1  0
 20 21  2  0
 20 22  1  0
  5 23  1  0
 23 24  2  0
 23 25  1  0
 25 26  1  0
 26 27  1  1
 27 28  1  0
 26 29  1  0
 29 30  2  0
 29 31  1  0
 31 32  1  0
 32 33  1  1
 33 34  1  0
 34 35  1  0
 34 36  1  0
 32 37  1  0
 37 38  2  0
 37 39  1  0
 39 40  1  0
 40 41  1  1
 41 42  1  0
 42 43  1  0
 42 44  1  0
 40 45  1  0
 45 46  2  0
 45 47  1  0
 47 48  1  0
 48 49  1  1
 49 50  1  0
 50 51  1  0
 51 52  1  0
 52 53  1  0
 48 54  1  0
 54 55  2  0
 54 56  1  0
M  CHG  5  13  -1  18   1  22  -1  53   1  56  -1
M  END
>  <shape_align_shape_tanimoto>  (3) 
0.41011525186098508

>  <shape_align_color_tanimoto>  (3) 
0.037812126384709939

>  <metric>  (3) 
combo

>  <metric_score>  (3) 
0.224

>  <template_pid>  (3) 
1UJJ

>  <template_shape_score>  (3) 
0.410

>  <template_color_score>  (3) 
0.038

>  <template_combo_score>  (3) 
0.224

$$$$
