3VEH_shape_pose
     RDKit          3D

 17 17  0  0  0  0  0  0  0  0999 V2000
   34.2657   24.3992   26.2521 C   0  0  0  0  0  0  0  0  0  0  0  0
   33.3892   23.1877   26.1781 C   0  0  0  0  0  0  0  0  0  0  0  0
   33.4891   22.1714   26.9945 C   0  0  0  0  0  0  0  0  0  0  0  0
   34.4217   22.1263   28.0071 O   0  0  0  0  0  0  0  0  0  0  0  0
   34.4512   23.0322   29.0527 C   0  0  0  0  0  0  0  0  0  0  0  0
   33.3750   23.7619   29.2897 C   0  0  0  0  0  0  0  0  0  0  0  0
   33.4193   24.7194   30.4022 C   0  0  0  0  0  0  0  0  0  0  0  0
   34.7428   25.3226   30.6704 C   0  0  0  0  0  0  0  0  0  0  0  0
   35.9439   24.6189   30.1748 C   0  0  1  0  0  0  0  0  0  0  0  0
   36.9837   24.6789   31.2372 C   0  0  0  0  0  0  0  0  0  0  0  0
   38.2032   24.4557   31.0239 O   0  0  0  0  0  0  0  0  0  0  0  0
   36.6525   24.9954   32.5678 O   0  0  0  0  0  0  0  0  0  0  0  0
   35.6862   23.1670   29.8856 C   0  0  2  0  0  0  0  0  0  0  0  0
   36.7188   22.5309   29.2601 O   0  0  0  0  0  0  0  0  0  0  0  0
   32.5634   21.0353   26.8159 C   0  0  0  0  0  0  0  0  0  0  0  0
   31.7110   21.0917   25.8797 O   0  0  0  0  0  0  0  0  0  0  0  0
   32.6402   19.9269   27.6725 O   0  0  0  0  0  0  0  0  0  0  0  0
  1  2  1  0
  2  3  2  0
  3  4  1  0
  4  5  1  0
  5  6  2  0
  6  7  1  0
  7  8  1  0
  8  9  1  0
  9 10  1  1
 10 11  2  0
 10 12  1  0
  9 13  1  0
 13 14  1  6
  3 15  1  0
 15 16  2  0
 15 17  1  0
 13  5  1  0
M  CHG  2  12  -1  17  -1
M  END
>  <shape_align_shape_tanimoto>  (1) 
0.62088260173463738

>  <shape_align_color_tanimoto>  (1) 
0.060687755013257176

>  <metric>  (1) 
shape

>  <metric_score>  (1) 
0.621

>  <template_pid>  (1) 
3VEH

>  <template_shape_score>  (1) 
0.621

>  <template_color_score>  (1) 
0.061

>  <template_combo_score>  (1) 
0.341

$$$$
3VEH_color_pose
     RDKit          3D

 17 17  0  0  0  0  0  0  0  0999 V2000
   33.1589   23.6119   31.7211 C   0  0  0  0  0  0  0  0  0  0  0  0
   33.1982   23.0452   30.3702 C   0  0  0  0  0  0  0  0  0  0  0  0
   33.9110   23.5488   29.3647 C   0  0  0  0  0  0  0  0  0  0  0  0
   34.6988   24.6828   29.5115 O   0  0  0  0  0  0  0  0  0  0  0  0
   35.9817   24.6844   30.0320 C   0  0  0  0  0  0  0  0  0  0  0  0
   36.9091   23.8505   29.5311 C   0  0  0  0  0  0  0  0  0  0  0  0
   38.2583   23.9618   30.1935 C   0  0  0  0  0  0  0  0  0  0  0  0
   37.9928   23.7037   31.6620 C   0  0  0  0  0  0  0  0  0  0  0  0
   37.0393   24.7177   32.2522 C   0  0  1  0  0  0  0  0  0  0  0  0
   37.7322   25.6015   33.2262 C   0  0  0  0  0  0  0  0  0  0  0  0
   37.0372   26.3440   33.9583 O   0  0  0  0  0  0  0  0  0  0  0  0
   39.1186   25.6236   33.3428 O   0  0  0  0  0  0  0  0  0  0  0  0
   36.4282   25.5622   31.1345 C   0  0  2  0  0  0  0  0  0  0  0  0
   35.4179   26.3702   31.5942 O   0  0  0  0  0  0  0  0  0  0  0  0
   33.8845   22.9106   28.0521 C   0  0  0  0  0  0  0  0  0  0  0  0
   34.5293   23.3294   27.0623 O   0  0  0  0  0  0  0  0  0  0  0  0
   33.1093   21.7729   27.8600 O   0  0  0  0  0  0  0  0  0  0  0  0
  1  2  1  0
  2  3  2  0
  3  4  1  0
  4  5  1  0
  5  6  2  0
  6  7  1  0
  7  8  1  0
  8  9  1  0
  9 10  1  1
 10 11  2  0
 10 12  1  0
  9 13  1  0
 13 14  1  1
  3 15  1  0
 15 16  2  0
 15 17  1  0
 13  5  1  0
M  CHG  2  12  -1  17  -1
M  END
>  <shape_align_shape_tanimoto>  (2) 
0.52326266837291779

>  <shape_align_color_tanimoto>  (2) 
0.095503344684211774

>  <metric>  (2) 
color

>  <metric_score>  (2) 
0.096

>  <template_pid>  (2) 
3VEH

>  <template_shape_score>  (2) 
0.523

>  <template_color_score>  (2) 
0.096

>  <template_combo_score>  (2) 
0.309

$$$$
3VEH_combo_pose
     RDKit          3D

 17 17  0  0  0  0  0  0  0  0999 V2000
   34.2657   24.3992   26.2521 C   0  0  0  0  0  0  0  0  0  0  0  0
   33.3892   23.1877   26.1781 C   0  0  0  0  0  0  0  0  0  0  0  0
   33.4891   22.1714   26.9945 C   0  0  0  0  0  0  0  0  0  0  0  0
   34.4217   22.1263   28.0071 O   0  0  0  0  0  0  0  0  0  0  0  0
   34.4512   23.0322   29.0527 C   0  0  0  0  0  0  0  0  0  0  0  0
   33.3750   23.7619   29.2897 C   0  0  0  0  0  0  0  0  0  0  0  0
   33.4193   24.7194   30.4022 C   0  0  0  0  0  0  0  0  0  0  0  0
   34.7428   25.3226   30.6704 C   0  0  0  0  0  0  0  0  0  0  0  0
   35.9439   24.6189   30.1748 C   0  0  1  0  0  0  0  0  0  0  0  0
   36.9837   24.6789   31.2372 C   0  0  0  0  0  0  0  0  0  0  0  0
   38.2032   24.4557   31.0239 O   0  0  0  0  0  0  0  0  0  0  0  0
   36.6525   24.9954   32.5678 O   0  0  0  0  0  0  0  0  0  0  0  0
   35.6862   23.1670   29.8856 C   0  0  2  0  0  0  0  0  0  0  0  0
   36.7188   22.5309   29.2601 O   0  0  0  0  0  0  0  0  0  0  0  0
   32.5634   21.0353   26.8159 C   0  0  0  0  0  0  0  0  0  0  0  0
   31.7110   21.0917   25.8797 O   0  0  0  0  0  0  0  0  0  0  0  0
   32.6402   19.9269   27.6725 O   0  0  0  0  0  0  0  0  0  0  0  0
  1  2  1  0
  2  3  2  0
  3  4  1  0
  4  5  1  0
  5  6  2  0
  6  7  1  0
  7  8  1  0
  8  9  1  0
  9 10  1  1
 10 11  2  0
 10 12  1  0
  9 13  1  0
 13 14  1  6
  3 15  1  0
 15 16  2  0
 15 17  1  0
 13  5  1  0
M  CHG  2  12  -1  17  -1
M  END
>  <shape_align_shape_tanimoto>  (3) 
0.62088260173463738

>  <shape_align_color_tanimoto>  (3) 
0.060687755013257176

>  <metric>  (3) 
combo

>  <metric_score>  (3) 
0.341

>  <template_pid>  (3) 
3VEH

>  <template_shape_score>  (3) 
0.621

>  <template_color_score>  (3) 
0.061

>  <template_combo_score>  (3) 
0.341

$$$$
