5ZLA_shape_pose
     RDKit          3D

 22 24  0  0  0  0  0  0  0  0999 V2000
   26.2407    3.4250   42.5574 O   0  0  0  0  0  0  0  0  0  0  0  0
   25.1740    4.2995   42.7419 C   0  0  0  0  0  0  0  0  0  0  0  0
   24.6797    4.7658   41.4079 C   0  0  1  0  0  0  0  0  0  0  0  0
   23.6171    5.6417   41.4843 O   0  0  0  0  0  0  0  0  0  0  0  0
   23.9160    6.8063   40.8350 C   0  0  2  0  0  0  0  0  0  0  0  0
   24.6207    7.7220   41.8101 C   0  0  0  0  0  0  0  0  0  0  0  0
   25.0466    8.8179   41.1027 O   0  0  0  0  0  0  0  0  0  0  0  0
   23.9269    9.5132   40.6465 C   0  0  2  0  0  0  0  0  0  0  0  0
   24.4717   10.6599   39.8126 C   0  0  0  0  0  0  0  0  0  0  0  0
   25.2966   11.4645   40.6345 O   0  0  0  0  0  0  0  0  0  0  0  0
   23.1486    9.9422   41.6878 O   0  0  0  0  0  0  0  0  0  0  0  0
   21.8869   10.2217   41.1869 C   0  0  2  0  0  0  0  0  0  0  0  0
   20.8063    9.7466   42.1638 C   0  0  0  0  0  0  0  0  0  0  0  0
   20.9008    8.3723   42.3727 O   0  0  0  0  0  0  0  0  0  0  0  0
   21.7127    9.4727   39.9068 C   0  0  1  0  0  0  0  0  0  0  0  0
   21.6358   10.3842   38.8404 O   0  0  0  0  0  0  0  0  0  0  0  0
   22.9935    8.6724   39.8143 C   0  0  2  0  0  0  0  0  0  0  0  0
   22.7990    7.3936   40.3109 O   0  0  0  0  0  0  0  0  0  0  0  0
   24.8646    6.3718   39.7321 C   0  0  1  0  0  0  0  0  0  0  0  0
   25.6279    7.4007   39.2205 O   0  0  0  0  0  0  0  0  0  0  0  0
   25.7215    5.3757   40.5248 C   0  0  2  0  0  0  0  0  0  0  0  0
   26.3371    4.4651   39.6721 O   0  0  0  0  0  0  0  0  0  0  0  0
  1  2  1  0
  3  2  1  1
  3  4  1  0
  4  5  1  0
  5  6  1  1
  6  7  1  0
  7  8  1  0
  8  9  1  6
  9 10  1  0
  8 11  1  0
 11 12  1  0
 12 13  1  1
 13 14  1  0
 12 15  1  0
 15 16  1  6
 15 17  1  0
 17 18  1  1
  5 19  1  0
 19 20  1  1
 19 21  1  0
 21 22  1  6
 21  3  1  0
 18  5  1  0
 17  8  1  0
M  END
>  <shape_align_shape_tanimoto>  (1) 
0.72331095830338421

>  <shape_align_color_tanimoto>  (1) 
0.13540174511481023

>  <metric>  (1) 
shape

>  <metric_score>  (1) 
0.723

>  <template_pid>  (1) 
5ZLA

>  <template_shape_score>  (1) 
0.723

>  <template_color_score>  (1) 
0.135

>  <template_combo_score>  (1) 
0.429

$$$$
5ZLA_color_pose
     RDKit          3D

 22 24  0  0  0  0  0  0  0  0999 V2000
   27.2329    4.6286   38.3422 O   0  0  0  0  0  0  0  0  0  0  0  0
   26.6137    4.0533   39.4420 C   0  0  0  0  0  0  0  0  0  0  0  0
   26.0596    5.1414   40.2910 C   0  0  1  0  0  0  0  0  0  0  0  0
   25.1191    5.9192   39.5973 O   0  0  0  0  0  0  0  0  0  0  0  0
   24.3815    6.6117   40.5378 C   0  0  2  0  0  0  0  0  0  0  0  0
   22.9136    6.4509   40.2224 C   0  0  0  0  0  0  0  0  0  0  0  0
   22.3028    7.6077   39.7950 O   0  0  0  0  0  0  0  0  0  0  0  0
   22.5267    8.7075   40.5872 C   0  0  2  0  0  0  0  0  0  0  0  0
   21.5838    8.6688   41.7972 C   0  0  0  0  0  0  0  0  0  0  0  0
   20.2653    8.6766   41.3449 O   0  0  0  0  0  0  0  0  0  0  0  0
   22.1679    9.8566   39.8969 O   0  0  0  0  0  0  0  0  0  0  0  0
   22.9591   10.8726   40.4298 C   0  0  2  0  0  0  0  0  0  0  0  0
   23.0189   12.0746   39.5168 C   0  0  0  0  0  0  0  0  0  0  0  0
   23.5509   11.7505   38.2792 O   0  0  0  0  0  0  0  0  0  0  0  0
   24.3213   10.1861   40.3524 C   0  0  1  0  0  0  0  0  0  0  0  0
   25.2963   10.8696   41.0253 O   0  0  0  0  0  0  0  0  0  0  0  0
   23.9500    8.8524   41.0049 C   0  0  2  0  0  0  0  0  0  0  0  0
   24.8193    7.9234   40.4990 O   0  0  0  0  0  0  0  0  0  0  0  0
   24.6496    5.9621   41.8913 C   0  0  1  0  0  0  0  0  0  0  0  0
   23.5100    5.7133   42.6177 O   0  0  0  0  0  0  0  0  0  0  0  0
   25.1687    4.6147   41.4117 C   0  0  2  0  0  0  0  0  0  0  0  0
   25.8493    3.9159   42.3677 O   0  0  0  0  0  0  0  0  0  0  0  0
  1  2  1  0
  3  2  1  6
  3  4  1  0
  4  5  1  0
  5  6  1  6
  6  7  1  0
  7  8  1  0
  8  9  1  1
  9 10  1  0
  8 11  1  0
 11 12  1  0
 12 13  1  6
 13 14  1  0
 12 15  1  0
 15 16  1  1
 15 17  1  0
 17 18  1  6
  5 19  1  0
 19 20  1  1
 19 21  1  0
 21 22  1  1
 21  3  1  0
 18  5  1  0
 17  8  1  0
M  END
>  <shape_align_shape_tanimoto>  (2) 
0.67240766098062066

>  <shape_align_color_tanimoto>  (2) 
0.19701199300944233

>  <metric>  (2) 
color

>  <metric_score>  (2) 
0.197

>  <template_pid>  (2) 
5ZLA

>  <template_shape_score>  (2) 
0.672

>  <template_color_score>  (2) 
0.197

>  <template_combo_score>  (2) 
0.435

$$$$
5ZLA_combo_pose
     RDKit          3D

 22 24  0  0  0  0  0  0  0  0999 V2000
   27.2329    4.6286   38.3422 O   0  0  0  0  0  0  0  0  0  0  0  0
   26.6137    4.0533   39.4420 C   0  0  0  0  0  0  0  0  0  0  0  0
   26.0596    5.1414   40.2910 C   0  0  1  0  0  0  0  0  0  0  0  0
   25.1191    5.9192   39.5973 O   0  0  0  0  0  0  0  0  0  0  0  0
   24.3815    6.6117   40.5378 C   0  0  2  0  0  0  0  0  0  0  0  0
   22.9136    6.4509   40.2224 C   0  0  0  0  0  0  0  0  0  0  0  0
   22.3028    7.6077   39.7950 O   0  0  0  0  0  0  0  0  0  0  0  0
   22.5267    8.7075   40.5872 C   0  0  2  0  0  0  0  0  0  0  0  0
   21.5838    8.6688   41.7972 C   0  0  0  0  0  0  0  0  0  0  0  0
   20.2653    8.6766   41.3449 O   0  0  0  0  0  0  0  0  0  0  0  0
   22.1679    9.8566   39.8969 O   0  0  0  0  0  0  0  0  0  0  0  0
   22.9591   10.8726   40.4298 C   0  0  2  0  0  0  0  0  0  0  0  0
   23.0189   12.0746   39.5168 C   0  0  0  0  0  0  0  0  0  0  0  0
   23.5509   11.7505   38.2792 O   0  0  0  0  0  0  0  0  0  0  0  0
   24.3213   10.1861   40.3524 C   0  0  1  0  0  0  0  0  0  0  0  0
   25.2963   10.8696   41.0253 O   0  0  0  0  0  0  0  0  0  0  0  0
   23.9500    8.8524   41.0049 C   0  0  2  0  0  0  0  0  0  0  0  0
   24.8193    7.9234   40.4990 O   0  0  0  0  0  0  0  0  0  0  0  0
   24.6496    5.9621   41.8913 C   0  0  1  0  0  0  0  0  0  0  0  0
   23.5100    5.7133   42.6177 O   0  0  0  0  0  0  0  0  0  0  0  0
   25.1687    4.6147   41.4117 C   0  0  2  0  0  0  0  0  0  0  0  0
   25.8493    3.9159   42.3677 O   0  0  0  0  0  0  0  0  0  0  0  0
  1  2  1  0
  3  2  1  6
  3  4  1  0
  4  5  1  0
  5  6  1  6
  6  7  1  0
  7  8  1  0
  8  9  1  1
  9 10  1  0
  8 11  1  0
 11 12  1  0
 12 13  1  6
 13 14  1  0
 12 15  1  0
 15 16  1  1
 15 17  1  0
 17 18  1  6
  5 19  1  0
 19 20  1  1
 19 21  1  0
 21 22  1  1
 21  3  1  0
 18  5  1  0
 17  8  1  0
M  END
>  <shape_align_shape_tanimoto>  (3) 
0.67240766098062066

>  <shape_align_color_tanimoto>  (3) 
0.19701199300944233

>  <metric>  (3) 
combo

>  <metric_score>  (3) 
0.435

>  <template_pid>  (3) 
5ZLA

>  <template_shape_score>  (3) 
0.672

>  <template_color_score>  (3) 
0.197

>  <template_combo_score>  (3) 
0.435

$$$$
