5EVD_shape_pose
     RDKit          3D

 15 16  0  0  0  0  0  0  0  0999 V2000
  -29.5462   93.6892   17.2176 C   0  0  0  0  0  0  0  0  0  0  0  0
  -29.7711   92.2111   17.4725 C   0  0  0  0  0  0  0  0  0  0  0  0
  -28.4246   91.5361   17.3880 C   0  0  0  0  0  0  0  0  0  0  0  0
  -30.7872   91.5517   16.1512 S   0  0  0  0  0  0  0  0  0  0  0  0
  -32.2469   91.2691   17.2197 C   0  0  2  0  0  0  0  0  0  0  0  0
  -33.3062   92.1473   16.6668 C   0  0  0  0  0  0  0  0  0  0  0  0
  -33.3032   93.5007   17.8791 S   0  0  0  0  0  0  0  0  0  0  0  0
  -32.7872   92.3788   19.2400 C   0  0  1  0  0  0  0  0  0  0  0  0
  -34.0370   91.6135   19.6326 C   0  0  0  0  0  0  0  0  0  0  0  0
  -35.3519   92.6959   20.1920 S   0  0  0  0  0  0  0  0  0  0  0  0
  -31.8650   91.5270   18.5113 N   0  0  2  0  0  0  0  0  0  0  0  0
  -30.5378   91.9477   18.7064 C   0  0  1  0  0  0  0  0  0  0  0  0
  -29.7181   90.9998   19.5198 C   0  0  0  0  0  0  0  0  0  0  0  0
  -30.0766   89.8149   19.7493 O   0  0  0  0  0  0  0  0  0  0  0  0
  -28.5061   91.4054   20.0614 O   0  0  0  0  0  0  0  0  0  0  0  0
  1  2  1  0
  2  3  1  0
  2  4  1  0
  4  5  1  0
  5  6  1  6
  6  7  1  0
  7  8  1  0
  8  9  1  6
  9 10  1  0
 11  8  1  6
 11 12  1  0
 12 13  1  6
 13 14  2  0
 13 15  1  0
 12  2  1  0
 11  5  1  0
M  CHG  2  11   1  15  -1
M  END
>  <shape_align_shape_tanimoto>  (1) 
0.67787479993293209

>  <shape_align_color_tanimoto>  (1) 
0.17133745537153219

>  <metric>  (1) 
shape

>  <metric_score>  (1) 
0.678

>  <template_pid>  (1) 
5EVD

>  <template_shape_score>  (1) 
0.678

>  <template_color_score>  (1) 
0.171

>  <template_combo_score>  (1) 
0.425

$$$$
5EVD_color_pose
     RDKit          3D

 15 16  0  0  0  0  0  0  0  0999 V2000
  -29.5342   90.3217   16.6549 C   0  0  0  0  0  0  0  0  0  0  0  0
  -29.6914   91.7346   17.0967 C   0  0  0  0  0  0  0  0  0  0  0  0
  -28.4604   92.5683   16.9194 C   0  0  0  0  0  0  0  0  0  0  0  0
  -31.1296   92.3911   16.2074 S   0  0  0  0  0  0  0  0  0  0  0  0
  -32.3531   91.8570   17.4503 C   0  0  2  0  0  0  0  0  0  0  0  0
  -33.1326   93.0056   17.9200 C   0  0  0  0  0  0  0  0  0  0  0  0
  -32.8345   92.9681   19.7286 S   0  0  0  0  0  0  0  0  0  0  0  0
  -32.2163   91.2287   19.7009 C   0  0  1  0  0  0  0  0  0  0  0  0
  -33.3507   90.2680   19.8057 C   0  0  0  0  0  0  0  0  0  0  0  0
  -32.7116   88.5788   19.7826 S   0  0  0  0  0  0  0  0  0  0  0  0
  -31.5490   91.2435   18.4376 N   0  0  2  0  0  0  0  0  0  0  0  0
  -30.2658   91.8541   18.4994 C   0  0  1  0  0  0  0  0  0  0  0  0
  -29.3563   91.3263   19.5142 C   0  0  0  0  0  0  0  0  0  0  0  0
  -28.3442   92.0568   19.8117 O   0  0  0  0  0  0  0  0  0  0  0  0
  -29.4578   90.1385   20.1850 O   0  0  0  0  0  0  0  0  0  0  0  0
  1  2  1  0
  2  3  1  0
  2  4  1  0
  4  5  1  0
  5  6  1  1
  6  7  1  0
  7  8  1  0
  8  9  1  6
  9 10  1  0
 11  8  1  1
 11 12  1  0
 12 13  1  1
 13 14  2  0
 13 15  1  0
 12  2  1  0
 11  5  1  0
M  CHG  2  11   1  15  -1
M  END
>  <shape_align_shape_tanimoto>  (2) 
0.56930675981039103

>  <shape_align_color_tanimoto>  (2) 
0.26596490881952867

>  <metric>  (2) 
color

>  <metric_score>  (2) 
0.266

>  <template_pid>  (2) 
5EVD

>  <template_shape_score>  (2) 
0.569

>  <template_color_score>  (2) 
0.266

>  <template_combo_score>  (2) 
0.418

$$$$
5EVD_combo_pose
     RDKit          3D

 15 16  0  0  0  0  0  0  0  0999 V2000
  -29.3158   90.0758   16.8871 C   0  0  0  0  0  0  0  0  0  0  0  0
  -29.4948   91.5351   17.1313 C   0  0  0  0  0  0  0  0  0  0  0  0
  -28.1993   92.2947   17.2049 C   0  0  0  0  0  0  0  0  0  0  0  0
  -30.6369   92.2253   15.8983 S   0  0  0  0  0  0  0  0  0  0  0  0
  -32.1141   92.2533   16.9638 C   0  0  2  0  0  0  0  0  0  0  0  0
  -32.2862   93.6832   17.3832 C   0  0  0  0  0  0  0  0  0  0  0  0
  -32.2166   93.5614   19.2155 S   0  0  0  0  0  0  0  0  0  0  0  0
  -32.5250   91.7469   19.1927 C   0  0  1  0  0  0  0  0  0  0  0  0
  -33.9952   91.6033   18.8700 C   0  0  0  0  0  0  0  0  0  0  0  0
  -34.9607   92.4493   20.1756 S   0  0  0  0  0  0  0  0  0  0  0  0
  -31.6859   91.4473   18.0691 N   0  0  2  0  0  0  0  0  0  0  0  0
  -30.3316   91.8007   18.3811 C   0  0  1  0  0  0  0  0  0  0  0  0
  -29.7677   91.1723   19.5660 C   0  0  0  0  0  0  0  0  0  0  0  0
  -30.2007   90.1584   20.1601 O   0  0  0  0  0  0  0  0  0  0  0  0
  -28.6091   91.7513   20.1207 O   0  0  0  0  0  0  0  0  0  0  0  0
  1  2  1  0
  2  3  1  0
  2  4  1  0
  4  5  1  0
  5  6  1  1
  6  7  1  0
  7  8  1  0
  8  9  1  6
  9 10  1  0
 11  8  1  1
 11 12  1  0
 12 13  1  1
 13 14  2  0
 13 15  1  0
 12  2  1  0
 11  5  1  0
M  CHG  2  11   1  15  -1
M  END
>  <shape_align_shape_tanimoto>  (3) 
0.66915179584108775

>  <shape_align_color_tanimoto>  (3) 
0.19398185096738063

>  <metric>  (3) 
combo

>  <metric_score>  (3) 
0.432

>  <template_pid>  (3) 
5EVD

>  <template_shape_score>  (3) 
0.669

>  <template_color_score>  (3) 
0.194

>  <template_combo_score>  (3) 
0.432

$$$$
