2Z4Z_shape_pose
     RDKit          3D

 25 24  0  0  0  0  0  0  0  0999 V2000
   27.9527    3.4753   46.2823 C   0  0  0  0  0  0  0  0  0  0  0  0
   27.0826    3.9772   45.1508 C   0  0  0  0  0  0  0  0  0  0  0  0
   27.8851    4.4077   43.9666 C   0  0  0  0  0  0  0  0  0  0  0  0
   27.0109    4.9062   42.8557 C   0  0  0  0  0  0  0  0  0  0  0  0
   26.0336    3.9090   42.3270 C   0  0  0  0  0  0  0  0  0  0  0  0
   25.1839    4.4636   41.2095 C   0  0  0  0  0  0  0  0  0  0  0  0
   25.3318    5.7186   40.7784 C   0  0  0  0  0  0  0  0  0  0  0  0
   24.5018    6.2728   39.6843 C   0  0  0  0  0  0  0  0  0  0  0  0
   23.7749    7.5144   40.2353 C   0  0  0  0  0  0  0  0  0  0  0  0
   22.9125    8.1323   39.1924 C   0  0  0  0  0  0  0  0  0  0  0  0
   22.1626    9.3341   39.5625 C   0  0  0  0  0  0  0  0  0  0  0  0
   22.1537    9.9641   40.7155 C   0  0  0  0  0  0  0  0  0  0  0  0
   21.3299   11.1857   40.9401 C   0  0  0  0  0  0  0  0  0  0  0  0
   20.3319   11.0221   42.0376 C   0  0  0  0  0  0  0  0  0  0  0  0
   20.9389   10.7069   43.3746 C   0  0  0  0  0  0  0  0  0  0  0  0
   21.8838   11.7382   43.8959 C   0  0  0  0  0  0  0  0  0  0  0  0
   22.3891   11.2351   45.2555 C   0  0  0  0  0  0  0  0  0  0  0  0
   22.7436    6.9759   41.5894 P   0  0  0  0  0  0  0  0  0  0  0  0
   22.6063    5.4513   41.6769 O   0  0  0  0  0  0  0  0  0  0  0  0
   23.3483    7.4614   43.0825 O   0  0  0  0  0  0  0  0  0  0  0  0
   21.1200    7.4909   41.3670 O   0  0  0  0  0  0  0  0  0  0  0  0
   25.0746    8.6780   40.6716 P   0  0  0  0  0  0  0  0  0  0  0  0
   25.2862    8.8327   42.1514 O   0  0  0  0  0  0  0  0  0  0  0  0
   24.8094   10.1866   39.9003 O   0  0  0  0  0  0  0  0  0  0  0  0
   26.5998    8.1890   40.0503 O   0  0  0  0  0  0  0  0  0  0  0  0
  1  2  1  0
  2  3  1  0
  3  4  1  0
  4  5  1  0
  5  6  1  0
  6  7  2  0
  7  8  1  0
  8  9  1  0
  9 10  1  0
 10 11  1  0
 11 12  2  0
 12 13  1  0
 13 14  1  0
 14 15  1  0
 15 16  1  0
 16 17  1  0
  9 18  1  0
 18 19  2  0
 18 20  1  0
 18 21  1  0
  9 22  1  0
 22 23  2  0
 22 24  1  0
 22 25  1  0
M  END
>  <shape_align_shape_tanimoto>  (1) 
0.52322159541668256

>  <shape_align_color_tanimoto>  (1) 
0.058377681089284275

>  <metric>  (1) 
shape

>  <metric_score>  (1) 
0.523

>  <template_pid>  (1) 
2Z4Z

>  <template_shape_score>  (1) 
0.523

>  <template_color_score>  (1) 
0.058

>  <template_combo_score>  (1) 
0.291

$$$$
2Z4Z_color_pose
     RDKit          3D

 25 24  0  0  0  0  0  0  0  0999 V2000
   28.8623   10.3422   35.3814 C   0  0  0  0  0  0  0  0  0  0  0  0
   28.6290    8.9402   35.8879 C   0  0  0  0  0  0  0  0  0  0  0  0
   27.1820    8.5057   35.7735 C   0  0  0  0  0  0  0  0  0  0  0  0
   27.0481    7.0951   36.3030 C   0  0  0  0  0  0  0  0  0  0  0  0
   25.6187    6.6285   36.2047 C   0  0  0  0  0  0  0  0  0  0  0  0
   24.7081    7.4836   36.9774 C   0  0  0  0  0  0  0  0  0  0  0  0
   23.9521    6.9871   37.9951 C   0  0  0  0  0  0  0  0  0  0  0  0
   23.0876    7.9278   38.6884 C   0  0  0  0  0  0  0  0  0  0  0  0
   23.2932    8.1610   40.1461 C   0  0  0  0  0  0  0  0  0  0  0  0
   23.1485    7.0547   41.0918 C   0  0  0  0  0  0  0  0  0  0  0  0
   23.9855    5.8735   41.0308 C   0  0  0  0  0  0  0  0  0  0  0  0
   24.7609    5.6116   42.1197 C   0  0  0  0  0  0  0  0  0  0  0  0
   25.6553    4.4488   42.1909 C   0  0  0  0  0  0  0  0  0  0  0  0
   25.6583    3.5739   40.9895 C   0  0  0  0  0  0  0  0  0  0  0  0
   26.6143    2.4064   41.1763 C   0  0  0  0  0  0  0  0  0  0  0  0
   28.0305    2.8868   41.4043 C   0  0  0  0  0  0  0  0  0  0  0  0
   28.5031    3.7059   40.2075 C   0  0  0  0  0  0  0  0  0  0  0  0
   21.9639    9.3790   40.5917 P   0  0  0  0  0  0  0  0  0  0  0  0
   21.8317   10.4052   39.5114 O   0  0  0  0  0  0  0  0  0  0  0  0
   20.5112    8.5390   40.8360 O   0  0  0  0  0  0  0  0  0  0  0  0
   22.4913   10.1090   42.0233 O   0  0  0  0  0  0  0  0  0  0  0  0
   24.8320    9.1084   40.3662 P   0  0  0  0  0  0  0  0  0  0  0  0
   24.8659    9.7623   41.7323 O   0  0  0  0  0  0  0  0  0  0  0  0
   24.8841   10.3563   39.2264 O   0  0  0  0  0  0  0  0  0  0  0  0
   26.2033    8.1787   40.2024 O   0  0  0  0  0  0  0  0  0  0  0  0
  1  2  1  0
  2  3  1  0
  3  4  1  0
  4  5  1  0
  5  6  1  0
  6  7  2  0
  7  8  1  0
  8  9  1  0
  9 10  1  0
 10 11  1  0
 11 12  2  0
 12 13  1  0
 13 14  1  0
 14 15  1  0
 15 16  1  0
 16 17  1  0
  9 18  1  0
 18 19  2  0
 18 20  1  0
 18 21  1  0
  9 22  1  0
 22 23  2  0
 22 24  1  0
 22 25  1  0
M  END
>  <shape_align_shape_tanimoto>  (2) 
0.45728754398145671

>  <shape_align_color_tanimoto>  (2) 
0.16312302820153135

>  <metric>  (2) 
color

>  <metric_score>  (2) 
0.163

>  <template_pid>  (2) 
2Z4Z

>  <template_shape_score>  (2) 
0.457

>  <template_color_score>  (2) 
0.163

>  <template_combo_score>  (2) 
0.310

$$$$
2Z4Z_combo_pose
     RDKit          3D

 25 24  0  0  0  0  0  0  0  0999 V2000
   21.6944    1.3647   41.1026 C   0  0  0  0  0  0  0  0  0  0  0  0
   20.7564    2.3768   40.4442 C   0  0  0  0  0  0  0  0  0  0  0  0
   20.6967    3.5564   41.3617 C   0  0  0  0  0  0  0  0  0  0  0  0
   19.7992    4.6709   40.8574 C   0  0  0  0  0  0  0  0  0  0  0  0
   19.7869    5.8295   41.8341 C   0  0  0  0  0  0  0  0  0  0  0  0
   21.1568    6.3932   42.0256 C   0  0  0  0  0  0  0  0  0  0  0  0
   21.4274    7.6503   41.7378 C   0  0  0  0  0  0  0  0  0  0  0  0
   22.8246    8.1232   41.9621 C   0  0  0  0  0  0  0  0  0  0  0  0
   23.3369    8.5808   40.6349 C   0  0  0  0  0  0  0  0  0  0  0  0
   23.3572    7.5480   39.5797 C   0  0  0  0  0  0  0  0  0  0  0  0
   24.1723    6.3624   39.7117 C   0  0  0  0  0  0  0  0  0  0  0  0
   25.0108    6.0250   40.6699 C   0  0  0  0  0  0  0  0  0  0  0  0
   25.7680    4.7386   40.6263 C   0  0  0  0  0  0  0  0  0  0  0  0
   25.3844    3.9418   41.8548 C   0  0  0  0  0  0  0  0  0  0  0  0
   25.7100    4.6498   43.1320 C   0  0  0  0  0  0  0  0  0  0  0  0
   25.2665    3.7244   44.2657 C   0  0  0  0  0  0  0  0  0  0  0  0
   25.5298    4.3014   45.6212 C   0  0  0  0  0  0  0  0  0  0  0  0
   24.9553    9.3979   40.7790 P   0  0  0  0  0  0  0  0  0  0  0  0
   24.9165   10.8266   40.2919 O   0  0  0  0  0  0  0  0  0  0  0  0
   26.1290    8.6240   39.8037 O   0  0  0  0  0  0  0  0  0  0  0  0
   25.5353    9.3998   42.3488 O   0  0  0  0  0  0  0  0  0  0  0  0
   22.1577    9.9041   40.1255 P   0  0  0  0  0  0  0  0  0  0  0  0
   21.0880    9.2732   39.2412 O   0  0  0  0  0  0  0  0  0  0  0  0
   22.9458   11.1476   39.3295 O   0  0  0  0  0  0  0  0  0  0  0  0
   21.3608   10.5699   41.4499 O   0  0  0  0  0  0  0  0  0  0  0  0
  1  2  1  0
  2  3  1  0
  3  4  1  0
  4  5  1  0
  5  6  1  0
  6  7  2  0
  7  8  1  0
  8  9  1  0
  9 10  1  0
 10 11  1  0
 11 12  2  0
 12 13  1  0
 13 14  1  0
 14 15  1  0
 15 16  1  0
 16 17  1  0
  9 18  1  0
 18 19  2  0
 18 20  1  0
 18 21  1  0
  9 22  1  0
 22 23  2  0
 22 24  1  0
 22 25  1  0
M  END
>  <shape_align_shape_tanimoto>  (3) 
0.50666838535981729

>  <shape_align_color_tanimoto>  (3) 
0.12968821011259918

>  <metric>  (3) 
combo

>  <metric_score>  (3) 
0.318

>  <template_pid>  (3) 
2Z4Z

>  <template_shape_score>  (3) 
0.507

>  <template_color_score>  (3) 
0.130

>  <template_combo_score>  (3) 
0.318

$$$$
