5MMN_shape_pose
     RDKit          3D

 24 26  0  0  0  0  0  0  0  0999 V2000
    1.7380    3.2635   27.0085 C   0  0  0  0  0  0  0  0  0  0  0  0
    2.6330    3.9442   28.0007 C   0  0  0  0  0  0  0  0  0  0  0  0
    3.2580    5.1440   27.4545 N   0  0  0  0  0  0  0  0  0  0  0  0
    2.3914    6.1852   27.0112 C   0  0  0  0  0  0  0  0  0  0  0  0
    1.1401    6.0161   27.1134 O   0  0  0  0  0  0  0  0  0  0  0  0
    2.9285    7.3918   26.4639 N   0  0  0  0  0  0  0  0  0  0  0  0
    2.0458    8.4238   26.0249 C   0  0  0  0  0  0  0  0  0  0  0  0
    2.4935    9.6142   25.4870 C   0  0  0  0  0  0  0  0  0  0  0  0
    1.5950   10.5766   25.0787 C   0  0  0  0  0  0  0  0  0  0  0  0
    2.0633   11.7579   24.5519 C   0  0  0  0  0  0  0  0  0  0  0  0
    3.4678   12.0654   24.3484 C   0  0  0  0  0  0  0  0  0  0  0  0
    4.3434   11.2600   23.6543 C   0  0  0  0  0  0  0  0  0  0  0  0
    5.6615   11.6174   23.5196 C   0  0  0  0  0  0  0  0  0  0  0  0
    6.0886   12.7691   24.0759 N   0  0  0  0  0  0  0  0  0  0  0  0
    5.2638   13.5902   24.7654 C   0  0  0  0  0  0  0  0  0  0  0  0
    5.7647   14.8449   25.3621 C   0  0  0  0  0  0  0  0  0  0  0  0
    3.9465   13.2330   24.9003 C   0  0  0  0  0  0  0  0  0  0  0  0
    1.1568   12.7439   24.1439 C   0  0  0  0  0  0  0  0  0  0  0  0
   -0.2049   12.5562   24.2577 C   0  0  0  0  0  0  0  0  0  0  0  0
   -0.6721   11.3591   24.7901 C   0  0  0  0  0  0  0  0  0  0  0  0
   -2.1218   11.0706   24.9493 C   0  0  0  0  0  0  0  0  0  0  0  0
    0.2274   10.3918   25.1907 C   0  0  0  0  0  0  0  0  0  0  0  0
   -0.1853    9.1857   25.7349 C   0  0  0  0  0  0  0  0  0  0  0  0
    0.7131    8.2617   26.1255 N   0  0  0  0  0  0  0  0  0  0  0  0
  1  2  1  0
  2  3  1  0
  3  4  1  0
  4  5  2  0
  4  6  1  0
  6  7  1  0
  7  8  2  0
  8  9  1  0
  9 10  2  0
 10 11  1  0
 11 12  2  0
 12 13  1  0
 13 14  2  0
 14 15  1  0
 15 16  1  0
 15 17  2  0
 10 18  1  0
 18 19  2  0
 19 20  1  0
 20 21  1  0
 20 22  2  0
 22 23  1  0
 23 24  2  0
 24  7  1  0
 22  9  1  0
 17 11  1  0
M  END
>  <shape_align_shape_tanimoto>  (1) 
0.63738180394806154

>  <shape_align_color_tanimoto>  (1) 
0.055163160744689847

>  <metric>  (1) 
shape

>  <metric_score>  (1) 
0.637

>  <template_pid>  (1) 
5MMN

>  <template_shape_score>  (1) 
0.637

>  <template_color_score>  (1) 
0.055

>  <template_combo_score>  (1) 
0.346

$$$$
5MMN_color_pose
     RDKit          3D

 24 26  0  0  0  0  0  0  0  0999 V2000
    6.3088   18.2146   25.1771 C   0  0  0  0  0  0  0  0  0  0  0  0
    6.0063   17.8326   26.6193 C   0  0  0  0  0  0  0  0  0  0  0  0
    4.8912   16.8967   26.5816 N   0  0  0  0  0  0  0  0  0  0  0  0
    5.0689   15.6866   25.8660 C   0  0  0  0  0  0  0  0  0  0  0  0
    6.1423   15.3951   25.2695 O   0  0  0  0  0  0  0  0  0  0  0  0
    4.0266   14.6942   25.7683 N   0  0  0  0  0  0  0  0  0  0  0  0
    4.2319   13.4858   25.0424 C   0  0  0  0  0  0  0  0  0  0  0  0
    3.2674   12.5074   24.9194 C   0  0  0  0  0  0  0  0  0  0  0  0
    3.5277   11.3584   24.2032 C   0  0  0  0  0  0  0  0  0  0  0  0
    2.5504   10.3962   24.0858 C   0  0  0  0  0  0  0  0  0  0  0  0
    1.2400   10.4833   24.7092 C   0  0  0  0  0  0  0  0  0  0  0  0
    0.1197   10.3100   23.8873 C   0  0  0  0  0  0  0  0  0  0  0  0
   -1.1639   10.3622   24.4142 C   0  0  0  0  0  0  0  0  0  0  0  0
   -1.3583   10.5827   25.7389 N   0  0  0  0  0  0  0  0  0  0  0  0
   -0.2779   10.7530   26.5513 C   0  0  0  0  0  0  0  0  0  0  0  0
   -0.4894   10.9953   28.0068 C   0  0  0  0  0  0  0  0  0  0  0  0
    1.0061   10.7010   26.0269 C   0  0  0  0  0  0  0  0  0  0  0  0
    2.8094    9.2400   23.3548 C   0  0  0  0  0  0  0  0  0  0  0  0
    4.0529    9.0518   22.7424 C   0  0  0  0  0  0  0  0  0  0  0  0
    5.0244   10.0443   22.8799 C   0  0  0  0  0  0  0  0  0  0  0  0
    6.3717    9.8740   22.2354 C   0  0  0  0  0  0  0  0  0  0  0  0
    4.7550   11.1746   23.6007 C   0  0  0  0  0  0  0  0  0  0  0  0
    5.7240   12.1730   23.7323 C   0  0  0  0  0  0  0  0  0  0  0  0
    5.4113   13.2545   24.4350 N   0  0  0  0  0  0  0  0  0  0  0  0
  1  2  1  0
  2  3  1  0
  3  4  1  0
  4  5  2  0
  4  6  1  0
  6  7  1  0
  7  8  2  0
  8  9  1  0
  9 10  2  0
 10 11  1  0
 11 12  2  0
 12 13  1  0
 13 14  2  0
 14 15  1  0
 15 16  1  0
 15 17  2  0
 10 18  1  0
 18 19  2  0
 19 20  1  0
 20 21  1  0
 20 22  2  0
 22 23  1  0
 23 24  2  0
 24  7  1  0
 22  9  1  0
 17 11  1  0
M  END
>  <shape_align_shape_tanimoto>  (2) 
0.53043305554434106

>  <shape_align_color_tanimoto>  (2) 
0.10734446711677982

>  <metric>  (2) 
color

>  <metric_score>  (2) 
0.107

>  <template_pid>  (2) 
5MMN

>  <template_shape_score>  (2) 
0.530

>  <template_color_score>  (2) 
0.107

>  <template_combo_score>  (2) 
0.319

$$$$
5MMN_combo_pose
     RDKit          3D

 24 26  0  0  0  0  0  0  0  0999 V2000
    0.6437    5.0831   28.4094 C   0  0  0  0  0  0  0  0  0  0  0  0
    1.1858    4.2280   27.2807 C   0  0  0  0  0  0  0  0  0  0  0  0
    2.4672    4.7994   26.8915 N   0  0  0  0  0  0  0  0  0  0  0  0
    2.4658    6.1549   26.4253 C   0  0  0  0  0  0  0  0  0  0  0  0
    1.3911    6.7459   26.3836 O   0  0  0  0  0  0  0  0  0  0  0  0
    3.6514    6.7778   26.0327 N   0  0  0  0  0  0  0  0  0  0  0  0
    3.8065    8.0934   25.5564 C   0  0  0  0  0  0  0  0  0  0  0  0
    2.8127    9.0192   25.3846 C   0  0  0  0  0  0  0  0  0  0  0  0
    3.0631   10.2975   24.9081 C   0  0  0  0  0  0  0  0  0  0  0  0
    2.0236   11.1852   24.7493 C   0  0  0  0  0  0  0  0  0  0  0  0
    0.6513   10.9290   25.0732 C   0  0  0  0  0  0  0  0  0  0  0  0
   -0.3225   11.1560   24.0979 C   0  0  0  0  0  0  0  0  0  0  0  0
   -1.6646   10.9499   24.3409 C   0  0  0  0  0  0  0  0  0  0  0  0
   -2.0651   10.5169   25.5500 N   0  0  0  0  0  0  0  0  0  0  0  0
   -1.1712   10.2775   26.5409 C   0  0  0  0  0  0  0  0  0  0  0  0
   -1.6157    9.7956   27.8868 C   0  0  0  0  0  0  0  0  0  0  0  0
    0.1845   10.4871   26.2917 C   0  0  0  0  0  0  0  0  0  0  0  0
    2.3387   12.4527   24.2572 C   0  0  0  0  0  0  0  0  0  0  0  0
    3.6283   12.8204   23.9389 C   0  0  0  0  0  0  0  0  0  0  0  0
    4.6699   11.9301   24.0995 C   0  0  0  0  0  0  0  0  0  0  0  0
    6.0756   12.2329   23.7876 C   0  0  0  0  0  0  0  0  0  0  0  0
    4.3475   10.6804   24.5859 C   0  0  0  0  0  0  0  0  0  0  0  0
    5.3383    9.7385   24.7635 C   0  0  0  0  0  0  0  0  0  0  0  0
    5.0647    8.5093   25.2272 N   0  0  0  0  0  0  0  0  0  0  0  0
  1  2  1  0
  2  3  1  0
  3  4  1  0
  4  5  2  0
  4  6  1  0
  6  7  1  0
  7  8  2  0
  8  9  1  0
  9 10  2  0
 10 11  1  0
 11 12  2  0
 12 13  1  0
 13 14  2  0
 14 15  1  0
 15 16  1  0
 15 17  2  0
 10 18  1  0
 18 19  2  0
 19 20  1  0
 20 21  1  0
 20 22  2  0
 22 23  1  0
 23 24  2  0
 24  7  1  0
 22  9  1  0
 17 11  1  0
M  END
>  <shape_align_shape_tanimoto>  (3) 
0.61456285046818748

>  <shape_align_color_tanimoto>  (3) 
0.084441520289546074

>  <metric>  (3) 
combo

>  <metric_score>  (3) 
0.350

>  <template_pid>  (3) 
5MMN

>  <template_shape_score>  (3) 
0.615

>  <template_color_score>  (3) 
0.084

>  <template_combo_score>  (3) 
0.350

$$$$
