6mhb_combo_pose
     RDKit          3D

 28 29  0  0  0  0  0  0  0  0999 V2000
   -6.2133    5.0895   -2.6001 C   0  0  0  0  0  0  0  0  0  0  0  0
   -5.8960    6.5327   -3.0073 C   0  0  0  0  0  0  0  0  0  0  0  0
   -4.8930    7.1238   -2.0793 C   0  0  0  0  0  0  0  0  0  0  0  0
   -5.0909    7.1615   -0.8784 O   0  0  0  0  0  0  0  0  0  0  0  0
   -3.7178    7.6258   -2.7032 N   0  0  0  0  0  0  0  0  0  0  0  0
   -2.5513    8.0632   -2.0628 C   0  0  0  0  0  0  0  0  0  0  0  0
   -1.4099    8.2496   -2.6653 N   0  0  0  0  0  0  0  0  0  0  0  0
   -0.4130    8.7265   -1.7466 C   0  0  0  0  0  0  0  0  0  0  0  0
    0.9181    9.0057   -2.3075 C   0  0  0  0  0  0  0  0  0  0  0  0
    1.8407    9.8273   -1.6125 C   0  0  0  0  0  0  0  0  0  0  0  0
    3.0826   10.0904   -2.1728 C   0  0  0  0  0  0  0  0  0  0  0  0
    3.4138    9.5356   -3.4309 C   0  0  0  0  0  0  0  0  0  0  0  0
    4.9374    9.8592   -4.1351 Cl  0  0  0  0  0  0  0  0  0  0  0  0
    2.5429    8.7343   -4.1310 C   0  0  0  0  0  0  0  0  0  0  0  0
    1.2933    8.4696   -3.5673 C   0  0  0  0  0  0  0  0  0  0  0  0
   -0.8606    8.8731   -0.4891 C   0  0  0  0  0  0  0  0  0  0  0  0
   -2.5100    8.4506   -0.3170 S   0  0  0  0  0  0  0  0  0  0  0  0
   -5.5915    4.7885   -1.7320 H   0  0  0  0  0  0  0  0  0  0  0  0
   -7.3151    5.0163   -2.3816 H   0  0  0  0  0  0  0  0  0  0  0  0
   -5.9141    4.4086   -3.4319 H   0  0  0  0  0  0  0  0  0  0  0  0
   -6.8231    7.1628   -2.8669 H   0  0  0  0  0  0  0  0  0  0  0  0
   -5.6591    6.6099   -4.0629 H   0  0  0  0  0  0  0  0  0  0  0  0
   -3.7274    7.6789   -3.7725 H   0  0  0  0  0  0  0  0  0  0  0  0
    1.5504   10.2327   -0.6531 H   0  0  0  0  0  0  0  0  0  0  0  0
    3.8038   10.7066   -1.6761 H   0  0  0  0  0  0  0  0  0  0  0  0
    2.7978    8.3105   -5.0928 H   0  0  0  0  0  0  0  0  0  0  0  0
    0.6159    7.8412   -4.1203 H   0  0  0  0  0  0  0  0  0  0  0  0
   -0.1543    9.2670    0.4257 H   0  0  0  0  0  0  0  0  0  0  0  0
  1  2  1  0
  2  3  1  0
  3  4  2  0
  3  5  1  0
  5  6  1  0
  6  7  2  0
  7  8  1  0
  8  9  1  0
  9 10  2  0
 10 11  1  0
 11 12  2  0
 12 13  1  0
 12 14  1  0
 14 15  2  0
  8 16  2  0
 16 17  1  0
 17  6  1  0
 15  9  1  0
  1 18  1  0
  1 19  1  0
  1 20  1  0
  2 21  1  0
  2 22  1  0
  5 23  1  0
 10 24  1  0
 11 25  1  0
 14 26  1  0
 15 27  1  0
 16 28  1  0
M  END
>  <shape_align_shape_tanimoto>  (1) 
0.9962469144715238

>  <shape_align_color_tanimoto>  (1) 
0.99022101215143643

>  <metric>  (1) 
combo

>  <metric_score>  (1) 
0.993

>  <tanimoto_shape_score>  (1) 
0.996

>  <tanimoto_color_score>  (1) 
0.990

>  <tanimoto_combo_score>  (1) 
0.993

>  <template_pid>  (1) 
6mhb

>  <template_ca_rmsd>  (1) 
0.0

>  <mcs_smarts>  (1) 
CCC(=O)-Nc1:n:c(-c2:c:c:c(-Cl):c:c:2):c:s:1

>  <mcs_atom_count>  (1) 
17

>  <mcs_bond_count>  (1) 
18

>  <mcs_similarity_score>  (1) 
0.600

>  <mcs_query_atoms>  (1) 
0,1,2,3,4,5,6,7,8,9,10,11,12,13,14,15,16

>  <mcs_template_atoms>  (1) 
6,0,5,4,7,1,9,2,10,11,12,13,14,15,16,3,8

>  <pose_rank_combo>  (1) 
1

>  <rmsd_to_crystal>  (1) 
0.086

$$$$
6mhb_combo_pose
     RDKit          3D

 28 29  0  0  0  0  0  0  0  0999 V2000
   -6.2172    5.0939   -2.5705 C   0  0  0  0  0  0  0  0  0  0  0  0
   -5.8882    6.5236   -3.0101 C   0  0  0  0  0  0  0  0  0  0  0  0
   -4.8964    7.1362   -2.0873 C   0  0  0  0  0  0  0  0  0  0  0  0
   -5.1148    7.2189   -0.8894 O   0  0  0  0  0  0  0  0  0  0  0  0
   -3.7041    7.6048   -2.7036 N   0  0  0  0  0  0  0  0  0  0  0  0
   -2.5437    8.0442   -2.0644 C   0  0  0  0  0  0  0  0  0  0  0  0
   -1.4014    8.2376   -2.6655 N   0  0  0  0  0  0  0  0  0  0  0  0
   -0.4075    8.7218   -1.7452 C   0  0  0  0  0  0  0  0  0  0  0  0
    0.9213    9.0064   -2.3081 C   0  0  0  0  0  0  0  0  0  0  0  0
    1.8395    9.8315   -1.6129 C   0  0  0  0  0  0  0  0  0  0  0  0
    3.0818   10.0987   -2.1758 C   0  0  0  0  0  0  0  0  0  0  0  0
    3.4117    9.5442   -3.4321 C   0  0  0  0  0  0  0  0  0  0  0  0
    4.9382    9.8714   -4.1383 Cl  0  0  0  0  0  0  0  0  0  0  0  0
    2.5445    8.7397   -4.1322 C   0  0  0  0  0  0  0  0  0  0  0  0
    1.2970    8.4705   -3.5685 C   0  0  0  0  0  0  0  0  0  0  0  0
   -0.8558    8.8669   -0.4890 C   0  0  0  0  0  0  0  0  0  0  0  0
   -2.5024    8.4345   -0.3175 S   0  0  0  0  0  0  0  0  0  0  0  0
   -5.3945    4.7732   -1.8953 H   0  0  0  0  0  0  0  0  0  0  0  0
   -6.2729    4.4545   -3.4874 H   0  0  0  0  0  0  0  0  0  0  0  0
   -7.2178    5.0522   -2.0729 H   0  0  0  0  0  0  0  0  0  0  0  0
   -6.8284    7.1297   -2.8575 H   0  0  0  0  0  0  0  0  0  0  0  0
   -5.6200    6.5352   -4.0620 H   0  0  0  0  0  0  0  0  0  0  0  0
   -3.7011    7.6256   -3.7737 H   0  0  0  0  0  0  0  0  0  0  0  0
    1.5486   10.2365   -0.6535 H   0  0  0  0  0  0  0  0  0  0  0  0
    3.7944   10.7226   -1.6657 H   0  0  0  0  0  0  0  0  0  0  0  0
    2.8006    8.3175   -5.0923 H   0  0  0  0  0  0  0  0  0  0  0  0
    0.6181    7.8378   -4.1205 H   0  0  0  0  0  0  0  0  0  0  0  0
   -0.1521    9.2666    0.4275 H   0  0  0  0  0  0  0  0  0  0  0  0
  1  2  1  0
  2  3  1  0
  3  4  2  0
  3  5  1  0
  5  6  1  0
  6  7  2  0
  7  8  1  0
  8  9  1  0
  9 10  2  0
 10 11  1  0
 11 12  2  0
 12 13  1  0
 12 14  1  0
 14 15  2  0
  8 16  2  0
 16 17  1  0
 17  6  1  0
 15  9  1  0
  1 18  1  0
  1 19  1  0
  1 20  1  0
  2 21  1  0
  2 22  1  0
  5 23  1  0
 10 24  1  0
 11 25  1  0
 14 26  1  0
 15 27  1  0
 16 28  1  0
M  END
>  <shape_align_shape_tanimoto>  (2) 
0.9953831334623795

>  <shape_align_color_tanimoto>  (2) 
0.98477862181679154

>  <metric>  (2) 
combo

>  <metric_score>  (2) 
0.990

>  <tanimoto_shape_score>  (2) 
0.995

>  <tanimoto_color_score>  (2) 
0.985

>  <tanimoto_combo_score>  (2) 
0.990

>  <template_pid>  (2) 
6mhb

>  <template_ca_rmsd>  (2) 
0.0

>  <mcs_smarts>  (2) 
CCC(=O)-Nc1:n:c(-c2:c:c:c(-Cl):c:c:2):c:s:1

>  <mcs_atom_count>  (2) 
17

>  <mcs_bond_count>  (2) 
18

>  <mcs_similarity_score>  (2) 
0.600

>  <mcs_query_atoms>  (2) 
0,1,2,3,4,5,6,7,8,9,10,11,12,13,14,15,16

>  <mcs_template_atoms>  (2) 
6,0,5,4,7,1,9,2,10,11,12,13,14,15,16,3,8

>  <pose_rank_combo>  (2) 
0

>  <rmsd_to_crystal>  (2) 
0.094

$$$$
