2BCD_shape_pose
     RDKit          3D

 55 56  0  0  0  0  0  0  0  0999 V2000
  -14.4081   12.6029  -24.3055 C   0  0  0  0  0  0  0  0  0  0  0  0
  -13.8617   12.2022  -22.9720 C   0  0  0  0  0  0  0  0  0  0  0  0
  -14.2536   13.0928  -21.8072 C   0  0  1  0  0  0  0  0  0  0  0  0
  -13.7963   14.4356  -22.0640 C   0  0  0  0  0  0  0  0  0  0  0  0
  -12.8733   14.6470  -22.8723 O   0  0  0  0  0  0  0  0  0  0  0  0
  -14.3186   15.6332  -21.4487 N   0  0  0  0  0  0  0  0  0  0  0  0
  -13.7774   16.9694  -21.7589 C   0  0  1  0  0  0  0  0  0  0  0  0
  -14.7692   17.7878  -22.4615 C   0  0  0  0  0  0  0  0  0  0  0  0
  -14.5711   18.8097  -23.1249 O   0  0  0  0  0  0  0  0  0  0  0  0
  -16.1156   17.3603  -22.3708 O   0  0  0  0  0  0  0  0  0  0  0  0
  -13.3710   17.5683  -20.4189 C   0  0  2  0  0  0  0  0  0  0  0  0
  -12.8671   18.9977  -20.5844 C   0  0  0  0  0  0  0  0  0  0  0  0
  -12.3380   16.7400  -19.7523 C   0  0  0  0  0  0  0  0  0  0  0  0
  -11.8990   15.7538  -20.3518 O   0  0  0  0  0  0  0  0  0  0  0  0
  -11.7914   16.9728  -18.4605 N   0  0  0  0  0  0  0  0  0  0  0  0
  -10.7759   16.0205  -18.0001 C   0  0  1  0  0  0  0  0  0  0  0  0
   -9.6475   16.6142  -17.2477 C   0  0  0  0  0  0  0  0  0  0  0  0
   -8.6337   15.5390  -16.8024 C   0  0  0  0  0  0  0  0  0  0  0  0
  -10.0050   17.3188  -15.9735 C   0  0  0  0  0  0  0  0  0  0  0  0
  -11.4614   14.8892  -17.2963 C   0  0  0  0  0  0  0  0  0  0  0  0
  -10.9796   13.7867  -17.0810 O   0  0  0  0  0  0  0  0  0  0  0  0
  -12.7890   15.0979  -16.8147 N   0  0  0  0  0  0  0  0  0  0  0  0
  -13.5991   13.9838  -16.2669 C   0  0  1  0  0  0  0  0  0  0  0  0
  -12.7697   13.3420  -15.1626 C   0  0  0  0  0  0  0  0  0  0  0  0
  -12.5096   12.0490  -15.1614 C   0  0  0  0  0  0  0  0  0  0  0  0
  -11.7236   11.3607  -14.1512 C   0  0  0  0  0  0  0  0  0  0  0  0
  -11.1184   12.0170  -12.9720 C   0  0  0  0  0  0  0  0  0  0  0  0
  -11.5392   10.0356  -14.3120 C   0  0  0  0  0  0  0  0  0  0  0  0
  -10.7893    9.1775  -13.4206 C   0  0  2  0  0  0  0  0  0  0  0  0
   -9.5389    8.6018  -14.1655 C   0  0  0  0  0  0  0  0  0  0  0  0
  -11.5066    8.0048  -12.9007 C   0  0  2  0  0  0  0  0  0  0  0  0
  -12.7156    8.1835  -12.0974 C   0  0  0  0  0  0  0  0  0  0  0  0
  -13.8439    8.8414  -12.7281 C   0  0  0  0  0  0  0  0  0  0  0  0
  -14.2323   10.1463  -12.5878 C   0  0  0  0  0  0  0  0  0  0  0  0
  -15.3282   10.7011  -13.2276 C   0  0  0  0  0  0  0  0  0  0  0  0
  -16.0861    9.9050  -14.0600 C   0  0  0  0  0  0  0  0  0  0  0  0
  -15.7363    8.5825  -14.2350 C   0  0  0  0  0  0  0  0  0  0  0  0
  -14.6383    8.0588  -13.5837 C   0  0  0  0  0  0  0  0  0  0  0  0
  -10.6111    7.0961  -12.2593 O   0  0  0  0  0  0  0  0  0  0  0  0
  -10.5936    5.9266  -13.0088 C   0  0  0  0  0  0  0  0  0  0  0  0
  -14.9269   14.4229  -15.8503 C   0  0  2  0  0  0  0  0  0  0  0  0
  -14.9502   15.2755  -14.6118 C   0  0  0  0  0  0  0  0  0  0  0  0
  -16.0924   13.5503  -16.0663 C   0  0  0  0  0  0  0  0  0  0  0  0
  -16.7289   12.9432  -15.1973 O   0  0  0  0  0  0  0  0  0  0  0  0
  -16.6302   13.3243  -17.4199 N   0  0  0  0  0  0  0  0  0  0  0  0
  -17.7552   12.4856  -17.6596 C   0  0  1  0  0  0  0  0  0  0  0  0
  -18.9977   13.3106  -17.9322 C   0  0  0  0  0  0  0  0  0  0  0  0
  -20.1495   12.8316  -17.7712 O   0  0  0  0  0  0  0  0  0  0  0  0
  -18.7674   14.6138  -18.3639 O   0  0  0  0  0  0  0  0  0  0  0  0
  -17.7383   11.4297  -18.6679 C   0  0  0  0  0  0  0  0  0  0  0  0
  -17.4967   11.7950  -20.1013 C   0  0  0  0  0  0  0  0  0  0  0  0
  -16.0935   12.1384  -20.3180 C   0  0  0  0  0  0  0  0  0  0  0  0
  -15.1473   11.9102  -19.5654 O   0  0  0  0  0  0  0  0  0  0  0  0
  -15.6303   12.8274  -21.5222 N   0  0  0  0  0  0  0  0  0  0  0  0
  -16.6875   13.2443  -22.3814 C   0  0  0  0  0  0  0  0  0  0  0  0
  1  2  1  0
  3  2  1  6
  3  4  1  0
  4  5  2  0
  4  6  1  0
  6  7  1  0
  7  8  1  1
  8  9  2  0
  8 10  1  0
  7 11  1  0
 11 12  1  6
 11 13  1  0
 13 14  2  0
 13 15  1  0
 15 16  1  0
 16 17  1  1
 17 18  1  0
 17 19  1  0
 16 20  1  0
 20 21  2  0
 20 22  1  0
 22 23  1  0
 23 24  1  1
 24 25  2  0
 25 26  1  0
 26 27  1  0
 26 28  2  0
 28 29  1  0
 29 30  1  6
 29 31  1  0
 31 32  1  1
 32 33  1  0
 33 34  2  0
 34 35  1  0
 35 36  2  0
 36 37  1  0
 37 38  2  0
 31 39  1  0
 39 40  1  0
 23 41  1  0
 41 42  1  1
 41 43  1  0
 43 44  2  0
 43 45  1  0
 45 46  1  0
 46 47  1  6
 47 48  2  0
 47 49  1  0
 46 50  1  0
 50 51  1  0
 51 52  1  0
 52 53  2  0
 52 54  1  0
 54 55  1  0
 54  3  1  0
 38 33  1  0
M  CHG  2  10  -1  49  -1
M  END
>  <shape_align_shape_tanimoto>  (1) 
0.2883585364416848

>  <shape_align_color_tanimoto>  (1) 
0.026440406821790274

>  <metric>  (1) 
shape

>  <metric_score>  (1) 
0.288

>  <template_pid>  (1) 
2BCD

>  <template_shape_score>  (1) 
0.288

>  <template_color_score>  (1) 
0.026

>  <template_combo_score>  (1) 
0.157

$$$$
2BCD_color_pose
     RDKit          3D

 55 56  0  0  0  0  0  0  0  0999 V2000
  -16.5062    9.5719  -20.4462 C   0  0  0  0  0  0  0  0  0  0  0  0
  -16.7025   10.7322  -21.3781 C   0  0  0  0  0  0  0  0  0  0  0  0
  -15.8727   11.9437  -20.9595 C   0  0  1  0  0  0  0  0  0  0  0  0
  -16.1501   13.0071  -21.9454 C   0  0  0  0  0  0  0  0  0  0  0  0
  -16.1925   12.7031  -23.1487 O   0  0  0  0  0  0  0  0  0  0  0  0
  -16.3748   14.3791  -21.6597 N   0  0  0  0  0  0  0  0  0  0  0  0
  -16.7129   15.3729  -22.6666 C   0  0  1  0  0  0  0  0  0  0  0  0
  -17.9520   16.1101  -22.3853 C   0  0  0  0  0  0  0  0  0  0  0  0
  -19.0390   15.4500  -22.4168 O   0  0  0  0  0  0  0  0  0  0  0  0
  -17.9806   17.4837  -22.0895 O   0  0  0  0  0  0  0  0  0  0  0  0
  -15.5520   16.2025  -23.1231 C   0  0  2  0  0  0  0  0  0  0  0  0
  -14.5660   15.2333  -23.7675 C   0  0  0  0  0  0  0  0  0  0  0  0
  -14.8620   16.9058  -22.0048 C   0  0  0  0  0  0  0  0  0  0  0  0
  -15.2938   16.8756  -20.8497 O   0  0  0  0  0  0  0  0  0  0  0  0
  -13.6659   17.6515  -22.2142 N   0  0  0  0  0  0  0  0  0  0  0  0
  -12.9215   18.2472  -21.0617 C   0  0  1  0  0  0  0  0  0  0  0  0
  -13.7687   19.2792  -20.3931 C   0  0  0  0  0  0  0  0  0  0  0  0
  -14.0714   20.3265  -21.4842 C   0  0  0  0  0  0  0  0  0  0  0  0
  -12.9122   20.0347  -19.3886 C   0  0  0  0  0  0  0  0  0  0  0  0
  -12.5288   17.1003  -20.2257 C   0  0  0  0  0  0  0  0  0  0  0  0
  -12.9706   15.9772  -20.5589 O   0  0  0  0  0  0  0  0  0  0  0  0
  -11.6947   17.0911  -19.0744 N   0  0  0  0  0  0  0  0  0  0  0  0
  -11.5643   15.8113  -18.4152 C   0  0  1  0  0  0  0  0  0  0  0  0
  -10.3833   15.1671  -19.1538 C   0  0  0  0  0  0  0  0  0  0  0  0
  -10.5445   14.1136  -19.9123 C   0  0  0  0  0  0  0  0  0  0  0  0
   -9.4319   13.4610  -20.6420 C   0  0  0  0  0  0  0  0  0  0  0  0
   -8.1093   14.1023  -20.5100 C   0  0  0  0  0  0  0  0  0  0  0  0
   -9.7010   12.4098  -21.3791 C   0  0  0  0  0  0  0  0  0  0  0  0
   -8.7495   11.6216  -22.1686 C   0  0  2  0  0  0  0  0  0  0  0  0
   -9.0430   11.8310  -23.6564 C   0  0  0  0  0  0  0  0  0  0  0  0
   -8.8674   10.1781  -21.7947 C   0  0  2  0  0  0  0  0  0  0  0  0
   -8.5877    9.8750  -20.3907 C   0  0  0  0  0  0  0  0  0  0  0  0
   -7.2524   10.1920  -19.8596 C   0  0  0  0  0  0  0  0  0  0  0  0
   -6.2326    9.2976  -20.1515 C   0  0  0  0  0  0  0  0  0  0  0  0
   -4.9429    9.4647  -19.6771 C   0  0  0  0  0  0  0  0  0  0  0  0
   -4.6906   10.5757  -18.8840 C   0  0  0  0  0  0  0  0  0  0  0  0
   -5.6716   11.4887  -18.5686 C   0  0  0  0  0  0  0  0  0  0  0  0
   -6.9314   11.2576  -19.0751 C   0  0  0  0  0  0  0  0  0  0  0  0
   -8.1620    9.3543  -22.6905 O   0  0  0  0  0  0  0  0  0  0  0  0
   -9.1382    8.6201  -23.4021 C   0  0  0  0  0  0  0  0  0  0  0  0
  -11.2721   15.7719  -16.9741 C   0  0  2  0  0  0  0  0  0  0  0  0
   -9.9725   16.2606  -16.4938 C   0  0  0  0  0  0  0  0  0  0  0  0
  -11.6369   14.3794  -16.5354 C   0  0  0  0  0  0  0  0  0  0  0  0
  -10.8404   13.4648  -16.3483 O   0  0  0  0  0  0  0  0  0  0  0  0
  -13.0239   14.0332  -16.2895 N   0  0  0  0  0  0  0  0  0  0  0  0
  -13.4270   12.6675  -16.0211 C   0  0  1  0  0  0  0  0  0  0  0  0
  -12.9990   12.3366  -14.5802 C   0  0  0  0  0  0  0  0  0  0  0  0
  -12.9439   11.1151  -14.3076 O   0  0  0  0  0  0  0  0  0  0  0  0
  -12.7120   13.3569  -13.7053 O   0  0  0  0  0  0  0  0  0  0  0  0
  -14.8731   12.4144  -16.0592 C   0  0  0  0  0  0  0  0  0  0  0  0
  -15.6826   12.8545  -17.2015 C   0  0  0  0  0  0  0  0  0  0  0  0
  -15.2663   12.3376  -18.5111 C   0  0  0  0  0  0  0  0  0  0  0  0
  -14.1987   11.8417  -18.8324 O   0  0  0  0  0  0  0  0  0  0  0  0
  -16.1913   12.3837  -19.6360 N   0  0  0  0  0  0  0  0  0  0  0  0
  -17.4800   12.8916  -19.3047 C   0  0  0  0  0  0  0  0  0  0  0  0
  1  2  1  0
  3  2  1  6
  3  4  1  0
  4  5  2  0
  4  6  1  0
  6  7  1  0
  7  8  1  1
  8  9  2  0
  8 10  1  0
  7 11  1  0
 11 12  1  1
 11 13  1  0
 13 14  2  0
 13 15  1  0
 15 16  1  0
 16 17  1  1
 17 18  1  0
 17 19  1  0
 16 20  1  0
 20 21  2  0
 20 22  1  0
 22 23  1  0
 23 24  1  6
 24 25  2  0
 25 26  1  0
 26 27  1  0
 26 28  2  0
 28 29  1  0
 29 30  1  6
 29 31  1  0
 31 32  1  1
 32 33  1  0
 33 34  2  0
 34 35  1  0
 35 36  2  0
 36 37  1  0
 37 38  2  0
 31 39  1  0
 39 40  1  0
 23 41  1  0
 41 42  1  6
 41 43  1  0
 43 44  2  0
 43 45  1  0
 45 46  1  0
 46 47  1  1
 47 48  2  0
 47 49  1  0
 46 50  1  0
 50 51  1  0
 51 52  1  0
 52 53  2  0
 52 54  1  0
 54 55  1  0
 54  3  1  0
 38 33  1  0
M  CHG  2  10  -1  49  -1
M  END
>  <shape_align_shape_tanimoto>  (2) 
0.27775246474908188

>  <shape_align_color_tanimoto>  (2) 
0.077035832616789077

>  <metric>  (2) 
color

>  <metric_score>  (2) 
0.077

>  <template_pid>  (2) 
2BCD

>  <template_shape_score>  (2) 
0.278

>  <template_color_score>  (2) 
0.077

>  <template_combo_score>  (2) 
0.177

$$$$
2BCD_combo_pose
     RDKit          3D

 55 56  0  0  0  0  0  0  0  0999 V2000
  -16.5062    9.5719  -20.4462 C   0  0  0  0  0  0  0  0  0  0  0  0
  -16.7025   10.7322  -21.3781 C   0  0  0  0  0  0  0  0  0  0  0  0
  -15.8727   11.9437  -20.9595 C   0  0  1  0  0  0  0  0  0  0  0  0
  -16.1501   13.0071  -21.9454 C   0  0  0  0  0  0  0  0  0  0  0  0
  -16.1925   12.7031  -23.1487 O   0  0  0  0  0  0  0  0  0  0  0  0
  -16.3748   14.3791  -21.6597 N   0  0  0  0  0  0  0  0  0  0  0  0
  -16.7129   15.3729  -22.6666 C   0  0  1  0  0  0  0  0  0  0  0  0
  -17.9520   16.1101  -22.3853 C   0  0  0  0  0  0  0  0  0  0  0  0
  -19.0390   15.4500  -22.4168 O   0  0  0  0  0  0  0  0  0  0  0  0
  -17.9806   17.4837  -22.0895 O   0  0  0  0  0  0  0  0  0  0  0  0
  -15.5520   16.2025  -23.1231 C   0  0  2  0  0  0  0  0  0  0  0  0
  -14.5660   15.2333  -23.7675 C   0  0  0  0  0  0  0  0  0  0  0  0
  -14.8620   16.9058  -22.0048 C   0  0  0  0  0  0  0  0  0  0  0  0
  -15.2938   16.8756  -20.8497 O   0  0  0  0  0  0  0  0  0  0  0  0
  -13.6659   17.6515  -22.2142 N   0  0  0  0  0  0  0  0  0  0  0  0
  -12.9215   18.2472  -21.0617 C   0  0  1  0  0  0  0  0  0  0  0  0
  -13.7687   19.2792  -20.3931 C   0  0  0  0  0  0  0  0  0  0  0  0
  -14.0714   20.3265  -21.4842 C   0  0  0  0  0  0  0  0  0  0  0  0
  -12.9122   20.0347  -19.3886 C   0  0  0  0  0  0  0  0  0  0  0  0
  -12.5288   17.1003  -20.2257 C   0  0  0  0  0  0  0  0  0  0  0  0
  -12.9706   15.9772  -20.5589 O   0  0  0  0  0  0  0  0  0  0  0  0
  -11.6947   17.0911  -19.0744 N   0  0  0  0  0  0  0  0  0  0  0  0
  -11.5643   15.8113  -18.4152 C   0  0  1  0  0  0  0  0  0  0  0  0
  -10.3833   15.1671  -19.1538 C   0  0  0  0  0  0  0  0  0  0  0  0
  -10.5445   14.1136  -19.9123 C   0  0  0  0  0  0  0  0  0  0  0  0
   -9.4319   13.4610  -20.6420 C   0  0  0  0  0  0  0  0  0  0  0  0
   -8.1093   14.1023  -20.5100 C   0  0  0  0  0  0  0  0  0  0  0  0
   -9.7010   12.4098  -21.3791 C   0  0  0  0  0  0  0  0  0  0  0  0
   -8.7495   11.6216  -22.1686 C   0  0  2  0  0  0  0  0  0  0  0  0
   -9.0430   11.8310  -23.6564 C   0  0  0  0  0  0  0  0  0  0  0  0
   -8.8674   10.1781  -21.7947 C   0  0  2  0  0  0  0  0  0  0  0  0
   -8.5877    9.8750  -20.3907 C   0  0  0  0  0  0  0  0  0  0  0  0
   -7.2524   10.1920  -19.8596 C   0  0  0  0  0  0  0  0  0  0  0  0
   -6.2326    9.2976  -20.1515 C   0  0  0  0  0  0  0  0  0  0  0  0
   -4.9429    9.4647  -19.6771 C   0  0  0  0  0  0  0  0  0  0  0  0
   -4.6906   10.5757  -18.8840 C   0  0  0  0  0  0  0  0  0  0  0  0
   -5.6716   11.4887  -18.5686 C   0  0  0  0  0  0  0  0  0  0  0  0
   -6.9314   11.2576  -19.0751 C   0  0  0  0  0  0  0  0  0  0  0  0
   -8.1620    9.3543  -22.6905 O   0  0  0  0  0  0  0  0  0  0  0  0
   -9.1382    8.6201  -23.4021 C   0  0  0  0  0  0  0  0  0  0  0  0
  -11.2721   15.7719  -16.9741 C   0  0  2  0  0  0  0  0  0  0  0  0
   -9.9725   16.2606  -16.4938 C   0  0  0  0  0  0  0  0  0  0  0  0
  -11.6369   14.3794  -16.5354 C   0  0  0  0  0  0  0  0  0  0  0  0
  -10.8404   13.4648  -16.3483 O   0  0  0  0  0  0  0  0  0  0  0  0
  -13.0239   14.0332  -16.2895 N   0  0  0  0  0  0  0  0  0  0  0  0
  -13.4270   12.6675  -16.0211 C   0  0  1  0  0  0  0  0  0  0  0  0
  -12.9990   12.3366  -14.5802 C   0  0  0  0  0  0  0  0  0  0  0  0
  -12.9439   11.1151  -14.3076 O   0  0  0  0  0  0  0  0  0  0  0  0
  -12.7120   13.3569  -13.7053 O   0  0  0  0  0  0  0  0  0  0  0  0
  -14.8731   12.4144  -16.0592 C   0  0  0  0  0  0  0  0  0  0  0  0
  -15.6826   12.8545  -17.2015 C   0  0  0  0  0  0  0  0  0  0  0  0
  -15.2663   12.3376  -18.5111 C   0  0  0  0  0  0  0  0  0  0  0  0
  -14.1987   11.8417  -18.8324 O   0  0  0  0  0  0  0  0  0  0  0  0
  -16.1913   12.3837  -19.6360 N   0  0  0  0  0  0  0  0  0  0  0  0
  -17.4800   12.8916  -19.3047 C   0  0  0  0  0  0  0  0  0  0  0  0
  1  2  1  0
  3  2  1  6
  3  4  1  0
  4  5  2  0
  4  6  1  0
  6  7  1  0
  7  8  1  1
  8  9  2  0
  8 10  1  0
  7 11  1  0
 11 12  1  1
 11 13  1  0
 13 14  2  0
 13 15  1  0
 15 16  1  0
 16 17  1  1
 17 18  1  0
 17 19  1  0
 16 20  1  0
 20 21  2  0
 20 22  1  0
 22 23  1  0
 23 24  1  6
 24 25  2  0
 25 26  1  0
 26 27  1  0
 26 28  2  0
 28 29  1  0
 29 30  1  6
 29 31  1  0
 31 32  1  1
 32 33  1  0
 33 34  2  0
 34 35  1  0
 35 36  2  0
 36 37  1  0
 37 38  2  0
 31 39  1  0
 39 40  1  0
 23 41  1  0
 41 42  1  6
 41 43  1  0
 43 44  2  0
 43 45  1  0
 45 46  1  0
 46 47  1  1
 47 48  2  0
 47 49  1  0
 46 50  1  0
 50 51  1  0
 51 52  1  0
 52 53  2  0
 52 54  1  0
 54 55  1  0
 54  3  1  0
 38 33  1  0
M  CHG  2  10  -1  49  -1
M  END
>  <shape_align_shape_tanimoto>  (3) 
0.27775246474908188

>  <shape_align_color_tanimoto>  (3) 
0.077035832616789077

>  <metric>  (3) 
combo

>  <metric_score>  (3) 
0.177

>  <template_pid>  (3) 
2BCD

>  <template_shape_score>  (3) 
0.278

>  <template_color_score>  (3) 
0.077

>  <template_combo_score>  (3) 
0.177

$$$$
