6NLJ_shape_pose
     RDKit          3D

 20 22  0  0  0  0  0  0  0  0999 V2000
   25.6398   28.4200   24.2021 O   0  0  0  0  0  0  0  0  0  0  0  0
   25.0468   27.7324   25.0825 C   0  0  0  0  0  0  0  0  0  0  0  0
   25.0725   27.8911   26.4952 N   0  0  0  0  0  0  0  0  0  0  0  0
   24.2388   26.8604   27.0136 C   0  0  0  0  0  0  0  0  0  0  0  0
   24.0202   26.6866   28.2354 O   0  0  0  0  0  0  0  0  0  0  0  0
   23.7053   26.0735   25.9136 C   0  0  0  0  0  0  0  0  0  0  0  0
   22.8560   24.9747   25.8922 C   0  0  0  0  0  0  0  0  0  0  0  0
   22.3220   24.3895   27.0680 N   0  0  0  0  0  0  0  0  0  0  0  0
   21.4479   23.2637   27.1036 C   0  0  0  0  0  0  0  0  0  0  0  0
   21.0785   22.9123   28.5186 C   0  0  0  0  0  0  0  0  0  0  0  0
   19.9489   23.4962   29.0978 C   0  0  0  0  0  0  0  0  0  0  0  0
   19.5964   23.1863   30.3907 C   0  0  0  0  0  0  0  0  0  0  0  0
   20.3480   22.2986   31.1332 C   0  0  0  0  0  0  0  0  0  0  0  0
   21.4704   21.7168   30.5612 C   0  0  0  0  0  0  0  0  0  0  0  0
   22.2720   20.8107   31.2615 O   0  0  0  0  0  0  0  0  0  0  0  0
   21.8529   22.0134   29.2481 C   0  0  0  0  0  0  0  0  0  0  0  0
   22.4898   24.3935   24.6735 C   0  0  0  0  0  0  0  0  0  0  0  0
   22.9786   24.9178   23.4700 C   0  0  0  0  0  0  0  0  0  0  0  0
   23.8287   26.0205   23.5229 C   0  0  0  0  0  0  0  0  0  0  0  0
   24.1932   26.5974   24.7181 C   0  0  0  0  0  0  0  0  0  0  0  0
  1  2  2  0
  2  3  1  0
  3  4  1  0
  4  5  2  0
  4  6  1  0
  6  7  2  0
  7  8  1  0
  8  9  1  0
  9 10  1  0
 10 11  2  0
 11 12  1  0
 12 13  2  0
 13 14  1  0
 14 15  1  0
 14 16  2  0
  7 17  1  0
 17 18  2  0
 18 19  1  0
 19 20  2  0
 20  2  1  0
 20  6  1  0
 16 10  1  0
M  END
>  <shape_align_shape_tanimoto>  (1) 
0.62860102361313819

>  <shape_align_color_tanimoto>  (1) 
0.035015806992845816

>  <metric>  (1) 
shape

>  <metric_score>  (1) 
0.629

>  <template_pid>  (1) 
6NLJ

>  <template_shape_score>  (1) 
0.629

>  <template_color_score>  (1) 
0.035

>  <template_combo_score>  (1) 
0.332

$$$$
6NLJ_color_pose
     RDKit          3D

 20 22  0  0  0  0  0  0  0  0999 V2000
   25.8360   27.3984   23.5324 O   0  0  0  0  0  0  0  0  0  0  0  0
   24.8496   26.6481   23.8084 C   0  0  0  0  0  0  0  0  0  0  0  0
   24.2232   25.7711   22.8817 N   0  0  0  0  0  0  0  0  0  0  0  0
   23.1723   25.1289   23.6079 C   0  0  0  0  0  0  0  0  0  0  0  0
   22.4179   24.2806   23.0642 O   0  0  0  0  0  0  0  0  0  0  0  0
   23.1557   25.6191   24.9956 C   0  0  0  0  0  0  0  0  0  0  0  0
   22.3335   25.3107   26.0983 C   0  0  0  0  0  0  0  0  0  0  0  0
   21.2857   24.3814   25.9566 N   0  0  0  0  0  0  0  0  0  0  0  0
   20.3579   23.9092   26.9124 C   0  0  0  0  0  0  0  0  0  0  0  0
   20.8315   23.0293   27.9704 C   0  0  0  0  0  0  0  0  0  0  0  0
   20.9705   21.6669   27.6484 C   0  0  0  0  0  0  0  0  0  0  0  0
   21.3869   20.7425   28.5829 C   0  0  0  0  0  0  0  0  0  0  0  0
   21.6871   21.1086   29.8773 C   0  0  0  0  0  0  0  0  0  0  0  0
   21.5572   22.4402   30.2146 C   0  0  0  0  0  0  0  0  0  0  0  0
   21.8557   22.8253   31.5149 O   0  0  0  0  0  0  0  0  0  0  0  0
   21.1364   23.3611   29.2638 C   0  0  0  0  0  0  0  0  0  0  0  0
   22.6407   25.9953   27.2515 C   0  0  0  0  0  0  0  0  0  0  0  0
   23.6653   26.9157   27.3539 C   0  0  0  0  0  0  0  0  0  0  0  0
   24.4582   27.2043   26.2673 C   0  0  0  0  0  0  0  0  0  0  0  0
   24.1781   26.5361   25.0929 C   0  0  0  0  0  0  0  0  0  0  0  0
  1  2  2  0
  2  3  1  0
  3  4  1  0
  4  5  2  0
  4  6  1  0
  6  7  2  0
  7  8  1  0
  8  9  1  0
  9 10  1  0
 10 11  2  0
 11 12  1  0
 12 13  2  0
 13 14  1  0
 14 15  1  0
 14 16  2  0
  7 17  1  0
 17 18  2  0
 18 19  1  0
 19 20  2  0
 20  2  1  0
 20  6  1  0
 16 10  1  0
M  END
>  <shape_align_shape_tanimoto>  (2) 
0.55386570129182677

>  <shape_align_color_tanimoto>  (2) 
0.1224861448528623

>  <metric>  (2) 
color

>  <metric_score>  (2) 
0.122

>  <template_pid>  (2) 
6NLJ

>  <template_shape_score>  (2) 
0.554

>  <template_color_score>  (2) 
0.122

>  <template_combo_score>  (2) 
0.338

$$$$
6NLJ_combo_pose
     RDKit          3D

 20 22  0  0  0  0  0  0  0  0999 V2000
   26.1193   28.2159   25.6959 O   0  0  0  0  0  0  0  0  0  0  0  0
   25.1165   27.4714   25.7945 C   0  0  0  0  0  0  0  0  0  0  0  0
   24.4027   27.3443   27.0376 N   0  0  0  0  0  0  0  0  0  0  0  0
   23.3453   26.4346   26.7822 C   0  0  0  0  0  0  0  0  0  0  0  0
   22.5128   26.0823   27.6305 O   0  0  0  0  0  0  0  0  0  0  0  0
   23.3826   25.9776   25.3799 C   0  0  0  0  0  0  0  0  0  0  0  0
   22.5330   25.0997   24.6556 C   0  0  0  0  0  0  0  0  0  0  0  0
   21.5942   24.4470   25.3651 N   0  0  0  0  0  0  0  0  0  0  0  0
   20.6142   23.7643   26.0953 C   0  0  0  0  0  0  0  0  0  0  0  0
   21.0775   23.2084   27.4257 C   0  0  0  0  0  0  0  0  0  0  0  0
   21.7941   21.9993   27.2878 C   0  0  0  0  0  0  0  0  0  0  0  0
   22.2450   21.3812   28.4649 C   0  0  0  0  0  0  0  0  0  0  0  0
   21.9885   21.9513   29.6929 C   0  0  0  0  0  0  0  0  0  0  0  0
   21.2833   23.1353   29.7585 C   0  0  0  0  0  0  0  0  0  0  0  0
   21.0036   23.7510   30.9983 O   0  0  0  0  0  0  0  0  0  0  0  0
   20.8192   23.7764   28.6291 C   0  0  0  0  0  0  0  0  0  0  0  0
   22.8951   24.9625   23.3196 C   0  0  0  0  0  0  0  0  0  0  0  0
   23.9610   25.5899   22.7192 C   0  0  0  0  0  0  0  0  0  0  0  0
   24.7225   26.4176   23.5124 C   0  0  0  0  0  0  0  0  0  0  0  0
   24.4487   26.6197   24.8314 C   0  0  0  0  0  0  0  0  0  0  0  0
  1  2  2  0
  2  3  1  0
  3  4  1  0
  4  5  2  0
  4  6  1  0
  6  7  2  0
  7  8  1  0
  8  9  1  0
  9 10  1  0
 10 11  2  0
 11 12  1  0
 12 13  2  0
 13 14  1  0
 14 15  1  0
 14 16  2  0
  7 17  1  0
 17 18  2  0
 18 19  1  0
 19 20  2  0
 20  2  1  0
 20  6  1  0
 16 10  1  0
M  END
>  <shape_align_shape_tanimoto>  (3) 
0.59700099444610522

>  <shape_align_color_tanimoto>  (3) 
0.10509938510976345

>  <metric>  (3) 
combo

>  <metric_score>  (3) 
0.351

>  <template_pid>  (3) 
6NLJ

>  <template_shape_score>  (3) 
0.597

>  <template_color_score>  (3) 
0.105

>  <template_combo_score>  (3) 
0.351

$$$$
