6QLP_shape_pose
     RDKit          3D

 32 35  0  0  0  0  0  0  0  0999 V2000
   13.0037    5.8667    3.7311 C   0  0  0  0  0  0  0  0  0  0  0  0
   11.6477    6.4762    3.6648 C   0  0  0  0  0  0  0  0  0  0  0  0
   10.6264    6.1050    4.5288 C   0  0  0  0  0  0  0  0  0  0  0  0
    9.3766    6.7099    4.4196 C   0  0  0  0  0  0  0  0  0  0  0  0
    9.1256    7.6662    3.4781 C   0  0  0  0  0  0  0  0  0  0  0  0
    7.5524    8.4832    3.2767 S   0  0  0  0  0  0  0  0  0  0  0  0
    7.4766    9.9660    4.2865 C   0  0  2  0  0  0  0  0  0  0  0  0
    7.4882    9.7487    5.6420 O   0  0  0  0  0  0  0  0  0  0  0  0
    7.7778   10.9265    6.2956 C   0  0  2  0  0  0  0  0  0  0  0  0
    7.8166   10.7674    7.8032 C   0  0  0  0  0  0  0  0  0  0  0  0
    8.1225   12.0482    8.3182 O   0  0  0  0  0  0  0  0  0  0  0  0
    6.8148   12.0534    6.0124 C   0  0  2  0  0  0  0  0  0  0  0  0
    5.6365   11.9804    6.7318 O   0  0  0  0  0  0  0  0  0  0  0  0
    6.6076   12.1884    4.5421 C   0  0  2  0  0  0  0  0  0  0  0  0
    5.6625   13.2061    4.1719 N   0  0  0  0  0  0  0  0  0  0  0  0
    5.9808   14.5242    4.1448 C   0  0  0  0  0  0  0  0  0  0  0  0
    4.8744   15.2494    3.7518 C   0  0  0  0  0  0  0  0  0  0  0  0
    4.7848   16.6993    3.5912 C   0  0  0  0  0  0  0  0  0  0  0  0
    3.5935   17.2651    3.1868 C   0  0  0  0  0  0  0  0  0  0  0  0
    3.4948   18.6470    3.0285 C   0  0  0  0  0  0  0  0  0  0  0  0
    2.3410   19.2449    2.6316 F   0  0  0  0  0  0  0  0  0  0  0  0
    4.6174   19.4210    3.2874 C   0  0  0  0  0  0  0  0  0  0  0  0
    4.6018   20.7813    3.1556 F   0  0  0  0  0  0  0  0  0  0  0  0
    5.8221   18.8371    3.6975 C   0  0  0  0  0  0  0  0  0  0  0  0
    6.9060   19.6187    3.9444 F   0  0  0  0  0  0  0  0  0  0  0  0
    5.9024   17.4632    3.8496 C   0  0  0  0  0  0  0  0  0  0  0  0
    3.9074   14.3323    3.5509 N   0  0  0  0  0  0  0  0  0  0  0  0
    4.3911   13.1109    3.8058 N   0  0  0  0  0  0  0  0  0  0  0  0
    6.2648   10.8179    3.9589 C   0  0  1  0  0  0  0  0  0  0  0  0
    6.0645   10.9053    2.5771 O   0  0  0  0  0  0  0  0  0  0  0  0
   10.1420    8.0475    2.6052 C   0  0  0  0  0  0  0  0  0  0  0  0
   11.3787    7.4440    2.7188 C   0  0  0  0  0  0  0  0  0  0  0  0
  1  2  1  0
  2  3  2  0
  3  4  1  0
  4  5  2  0
  5  6  1  0
  7  6  1  6
  7  8  1  0
  8  9  1  0
  9 10  1  1
 10 11  1  0
  9 12  1  0
 12 13  1  1
 12 14  1  0
 14 15  1  1
 15 16  1  0
 16 17  2  0
 17 18  1  0
 18 19  2  0
 19 20  1  0
 20 21  1  0
 20 22  2  0
 22 23  1  0
 22 24  1  0
 24 25  1  0
 24 26  2  0
 17 27  1  0
 27 28  2  0
 14 29  1  0
 29 30  1  6
  5 31  1  0
 31 32  2  0
 32  2  1  0
 29  7  1  0
 28 15  1  0
 26 18  1  0
M  END
>  <shape_align_shape_tanimoto>  (1) 
0.27818160665533936

>  <shape_align_color_tanimoto>  (1) 
0.04805991036795422

>  <metric>  (1) 
shape

>  <metric_score>  (1) 
0.278

>  <template_pid>  (1) 
6QLP

>  <template_shape_score>  (1) 
0.278

>  <template_color_score>  (1) 
0.048

>  <template_combo_score>  (1) 
0.163

$$$$
6QLP_color_pose
     RDKit          3D

 32 35  0  0  0  0  0  0  0  0999 V2000
   12.3894    5.5400    5.4623 C   0  0  0  0  0  0  0  0  0  0  0  0
   11.1911    6.2428    4.9055 C   0  0  0  0  0  0  0  0  0  0  0  0
   10.9351    7.5290    5.3509 C   0  0  0  0  0  0  0  0  0  0  0  0
    9.8124    8.1679    4.8198 C   0  0  0  0  0  0  0  0  0  0  0  0
    8.9902    7.5497    3.8914 C   0  0  0  0  0  0  0  0  0  0  0  0
    7.5674    8.5048    3.2900 S   0  0  0  0  0  0  0  0  0  0  0  0
    7.5315   10.1165    4.0867 C   0  0  2  0  0  0  0  0  0  0  0  0
    7.2685    9.9796    5.4506 O   0  0  0  0  0  0  0  0  0  0  0  0
    7.0752   11.1832    6.0934 C   0  0  2  0  0  0  0  0  0  0  0  0
    5.6414   11.3886    6.5825 C   0  0  0  0  0  0  0  0  0  0  0  0
    5.2953   10.3785    7.4853 O   0  0  0  0  0  0  0  0  0  0  0  0
    7.5871   12.3930    5.3440 C   0  0  2  0  0  0  0  0  0  0  0  0
    7.1427   13.5312    6.0353 O   0  0  0  0  0  0  0  0  0  0  0  0
    7.1156   12.4877    3.9148 C   0  0  2  0  0  0  0  0  0  0  0  0
    6.1646   13.5561    3.6965 N   0  0  0  0  0  0  0  0  0  0  0  0
    6.4742   14.8617    3.9405 C   0  0  0  0  0  0  0  0  0  0  0  0
    5.3532   15.6240    3.6326 C   0  0  0  0  0  0  0  0  0  0  0  0
    5.2732   17.0885    3.7606 C   0  0  0  0  0  0  0  0  0  0  0  0
    6.3827   17.8105    4.2203 C   0  0  0  0  0  0  0  0  0  0  0  0
    6.2712   19.1827    4.3294 C   0  0  0  0  0  0  0  0  0  0  0  0
    7.3936   19.8427    4.7876 F   0  0  0  0  0  0  0  0  0  0  0  0
    5.1049   19.8647    4.0011 C   0  0  0  0  0  0  0  0  0  0  0  0
    5.0833   21.2174    4.1386 F   0  0  0  0  0  0  0  0  0  0  0  0
    4.0129   19.1415    3.5473 C   0  0  0  0  0  0  0  0  0  0  0  0
    2.8666   19.7713    3.2203 F   0  0  0  0  0  0  0  0  0  0  0  0
    4.0962   17.7413    3.4254 C   0  0  0  0  0  0  0  0  0  0  0  0
    4.4094   14.7500    3.2141 N   0  0  0  0  0  0  0  0  0  0  0  0
    4.9116   13.4963    3.2564 N   0  0  0  0  0  0  0  0  0  0  0  0
    6.6484   11.1391    3.4036 C   0  0  1  0  0  0  0  0  0  0  0  0
    6.9200   11.0800    2.0205 O   0  0  0  0  0  0  0  0  0  0  0  0
    9.2463    6.2637    3.4463 C   0  0  0  0  0  0  0  0  0  0  0  0
   10.3716    5.6115    3.9727 C   0  0  0  0  0  0  0  0  0  0  0  0
  1  2  1  0
  2  3  2  0
  3  4  1  0
  4  5  2  0
  5  6  1  0
  7  6  1  6
  7  8  1  0
  8  9  1  0
  9 10  1  6
 10 11  1  0
  9 12  1  0
 12 13  1  1
 12 14  1  0
 14 15  1  1
 15 16  1  0
 16 17  2  0
 17 18  1  0
 18 19  2  0
 19 20  1  0
 20 21  1  0
 20 22  2  0
 22 23  1  0
 22 24  1  0
 24 25  1  0
 24 26  2  0
 17 27  1  0
 27 28  2  0
 14 29  1  0
 29 30  1  6
  5 31  1  0
 31 32  2  0
 32  2  1  0
 29  7  1  0
 28 15  1  0
 26 18  1  0
M  END
>  <shape_align_shape_tanimoto>  (2) 
0.27165545779946365

>  <shape_align_color_tanimoto>  (2) 
0.061234950449824181

>  <metric>  (2) 
color

>  <metric_score>  (2) 
0.061

>  <template_pid>  (2) 
6QLP

>  <template_shape_score>  (2) 
0.272

>  <template_color_score>  (2) 
0.061

>  <template_combo_score>  (2) 
0.166

$$$$
6QLP_combo_pose
     RDKit          3D

 32 35  0  0  0  0  0  0  0  0999 V2000
   12.3894    5.5400    5.4623 C   0  0  0  0  0  0  0  0  0  0  0  0
   11.1911    6.2428    4.9055 C   0  0  0  0  0  0  0  0  0  0  0  0
   10.9351    7.5290    5.3509 C   0  0  0  0  0  0  0  0  0  0  0  0
    9.8124    8.1679    4.8198 C   0  0  0  0  0  0  0  0  0  0  0  0
    8.9902    7.5497    3.8914 C   0  0  0  0  0  0  0  0  0  0  0  0
    7.5674    8.5048    3.2900 S   0  0  0  0  0  0  0  0  0  0  0  0
    7.5315   10.1165    4.0867 C   0  0  2  0  0  0  0  0  0  0  0  0
    7.2685    9.9796    5.4506 O   0  0  0  0  0  0  0  0  0  0  0  0
    7.0752   11.1832    6.0934 C   0  0  2  0  0  0  0  0  0  0  0  0
    5.6414   11.3886    6.5825 C   0  0  0  0  0  0  0  0  0  0  0  0
    5.2953   10.3785    7.4853 O   0  0  0  0  0  0  0  0  0  0  0  0
    7.5871   12.3930    5.3440 C   0  0  2  0  0  0  0  0  0  0  0  0
    7.1427   13.5312    6.0353 O   0  0  0  0  0  0  0  0  0  0  0  0
    7.1156   12.4877    3.9148 C   0  0  2  0  0  0  0  0  0  0  0  0
    6.1646   13.5561    3.6965 N   0  0  0  0  0  0  0  0  0  0  0  0
    6.4742   14.8617    3.9405 C   0  0  0  0  0  0  0  0  0  0  0  0
    5.3532   15.6240    3.6326 C   0  0  0  0  0  0  0  0  0  0  0  0
    5.2732   17.0885    3.7606 C   0  0  0  0  0  0  0  0  0  0  0  0
    6.3827   17.8105    4.2203 C   0  0  0  0  0  0  0  0  0  0  0  0
    6.2712   19.1827    4.3294 C   0  0  0  0  0  0  0  0  0  0  0  0
    7.3936   19.8427    4.7876 F   0  0  0  0  0  0  0  0  0  0  0  0
    5.1049   19.8647    4.0011 C   0  0  0  0  0  0  0  0  0  0  0  0
    5.0833   21.2174    4.1386 F   0  0  0  0  0  0  0  0  0  0  0  0
    4.0129   19.1415    3.5473 C   0  0  0  0  0  0  0  0  0  0  0  0
    2.8666   19.7713    3.2203 F   0  0  0  0  0  0  0  0  0  0  0  0
    4.0962   17.7413    3.4254 C   0  0  0  0  0  0  0  0  0  0  0  0
    4.4094   14.7500    3.2141 N   0  0  0  0  0  0  0  0  0  0  0  0
    4.9116   13.4963    3.2564 N   0  0  0  0  0  0  0  0  0  0  0  0
    6.6484   11.1391    3.4036 C   0  0  1  0  0  0  0  0  0  0  0  0
    6.9200   11.0800    2.0205 O   0  0  0  0  0  0  0  0  0  0  0  0
    9.2463    6.2637    3.4463 C   0  0  0  0  0  0  0  0  0  0  0  0
   10.3716    5.6115    3.9727 C   0  0  0  0  0  0  0  0  0  0  0  0
  1  2  1  0
  2  3  2  0
  3  4  1  0
  4  5  2  0
  5  6  1  0
  7  6  1  6
  7  8  1  0
  8  9  1  0
  9 10  1  6
 10 11  1  0
  9 12  1  0
 12 13  1  1
 12 14  1  0
 14 15  1  1
 15 16  1  0
 16 17  2  0
 17 18  1  0
 18 19  2  0
 19 20  1  0
 20 21  1  0
 20 22  2  0
 22 23  1  0
 22 24  1  0
 24 25  1  0
 24 26  2  0
 17 27  1  0
 27 28  2  0
 14 29  1  0
 29 30  1  6
  5 31  1  0
 31 32  2  0
 32  2  1  0
 29  7  1  0
 28 15  1  0
 26 18  1  0
M  END
>  <shape_align_shape_tanimoto>  (3) 
0.27165545779946365

>  <shape_align_color_tanimoto>  (3) 
0.061234950449824181

>  <metric>  (3) 
combo

>  <metric_score>  (3) 
0.166

>  <template_pid>  (3) 
6QLP

>  <template_shape_score>  (3) 
0.272

>  <template_color_score>  (3) 
0.061

>  <template_combo_score>  (3) 
0.166

$$$$
