4UIB_shape_pose
     RDKit          3D

 34 36  0  0  0  0  0  0  0  0999 V2000
   46.4214   51.0950   39.9383 C   0  0  0  0  0  0  0  0  0  0  0  0
   47.3419   49.9307   39.6595 C   0  0  0  0  0  0  0  0  0  0  0  0
   48.3305   49.7830   40.7564 C   0  0  0  0  0  0  0  0  0  0  0  0
   46.5705   48.6473   39.3482 C   0  0  2  0  0  0  0  0  0  0  0  0
   47.7138   47.7422   38.9619 C   0  0  0  0  0  0  0  0  0  0  0  0
   48.6138   48.6847   38.1864 C   0  0  0  0  0  0  0  0  0  0  0  0
   47.9585   50.0413   38.2711 C   0  0  2  0  0  0  0  0  0  0  0  0
   48.9053   51.1726   38.1412 C   0  0  0  0  0  0  0  0  0  0  0  0
   46.6873   50.1307   37.4928 C   0  0  1  0  0  0  0  0  0  0  0  0
   46.7824   50.1657   36.0819 N   0  0  0  0  0  0  0  0  0  0  0  0
   46.0957   51.1583   35.3541 C   0  0  0  0  0  0  0  0  0  0  0  0
   45.4058   51.9908   35.9649 O   0  0  0  0  0  0  0  0  0  0  0  0
   46.1472   51.2648   33.8562 C   0  0  1  0  0  0  0  0  0  0  0  0
   46.0552   52.6836   33.4804 C   0  0  0  0  0  0  0  0  0  0  0  0
   46.0688   53.0424   32.0373 C   0  0  0  0  0  0  0  0  0  0  0  0
   45.9401   54.5584   31.9193 C   0  0  0  0  0  0  0  0  0  0  0  0
   46.9042   55.1708   30.9611 C   0  0  0  0  0  0  0  0  0  0  0  0
   46.9571   54.4513   29.6309 C   0  0  0  0  0  0  0  0  0  0  0  0
   46.9146   52.9648   29.7761 C   0  0  0  0  0  0  0  0  0  0  0  0
   47.2585   52.6351   31.2444 C   0  0  0  0  0  0  0  0  0  0  0  0
   47.1512   50.4450   33.2889 N   0  0  0  0  0  0  0  0  0  0  0  0
   48.5157   50.5350   33.7020 C   0  0  0  0  0  0  0  0  0  0  0  0
   48.9032   51.3660   34.5909 O   0  0  0  0  0  0  0  0  0  0  0  0
   49.4406   49.6571   33.0807 N   0  0  0  0  0  0  0  0  0  0  0  0
   50.8787   49.6543   33.4238 C   0  0  1  0  0  0  0  0  0  0  0  0
   51.2879   48.4076   34.1003 C   0  0  0  0  0  0  0  0  0  0  0  0
   51.1085   47.1168   33.4302 C   0  0  0  0  0  0  0  0  0  0  0  0
   51.8328   46.7739   32.1981 C   0  0  0  0  0  0  0  0  0  0  0  0
   53.3351   46.7020   32.3468 C   0  0  0  0  0  0  0  0  0  0  0  0
   53.9130   46.3614   31.0712 N   0  0  0  0  0  0  0  0  0  0  0  0
   51.7061   50.2406   32.3912 C   0  0  0  0  0  0  0  0  0  0  0  0
   52.6124   49.7350   31.7114 O   0  0  0  0  0  0  0  0  0  0  0  0
   51.4531   51.6123   32.0948 O   0  0  0  0  0  0  0  0  0  0  0  0
   45.8447   49.0351   38.0758 C   0  0  0  0  0  0  0  0  0  0  0  0
  1  2  1  0
  2  3  1  0
  2  4  1  0
  4  5  1  6
  5  6  1  0
  6  7  1  0
  7  8  1  1
  7  9  1  0
  9 10  1  6
 10 11  1  0
 11 12  2  0
 11 13  1  0
 13 14  1  1
 14 15  1  0
 15 16  1  0
 16 17  1  0
 17 18  1  0
 18 19  1  0
 19 20  1  0
 13 21  1  0
 21 22  1  0
 22 23  2  0
 22 24  1  0
 24 25  1  0
 25 26  1  6
 26 27  1  0
 27 28  1  0
 28 29  1  0
 29 30  1  0
 25 31  1  0
 31 32  2  0
 31 33  1  0
  9 34  1  0
  7  2  1  0
 20 15  1  0
 34  4  1  0
M  CHG  2  30   1  33  -1
M  END
>  <shape_align_shape_tanimoto>  (1) 
0.60166759562678607

>  <shape_align_color_tanimoto>  (1) 
0.0099962098904093737

>  <metric>  (1) 
shape

>  <metric_score>  (1) 
0.602

>  <template_pid>  (1) 
4UIB

>  <template_shape_score>  (1) 
0.602

>  <template_color_score>  (1) 
0.010

>  <template_combo_score>  (1) 
0.306

$$$$
4UIB_color_pose
     RDKit          3D

 34 36  0  0  0  0  0  0  0  0999 V2000
   46.0076   49.9543   40.3230 C   0  0  0  0  0  0  0  0  0  0  0  0
   47.2394   50.0298   39.5037 C   0  0  0  0  0  0  0  0  0  0  0  0
   48.4734   49.8167   40.3060 C   0  0  0  0  0  0  0  0  0  0  0  0
   47.3553   51.3800   38.7719 C   0  0  2  0  0  0  0  0  0  0  0  0
   46.2056   51.2987   37.8215 C   0  0  0  0  0  0  0  0  0  0  0  0
   45.9246   49.7990   37.6368 C   0  0  0  0  0  0  0  0  0  0  0  0
   47.1795   49.1957   38.2133 C   0  0  2  0  0  0  0  0  0  0  0  0
   47.0763   47.7389   38.5110 C   0  0  0  0  0  0  0  0  0  0  0  0
   48.3953   49.6616   37.5294 C   0  0  1  0  0  0  0  0  0  0  0  0
   48.3590   49.7336   36.0788 N   0  0  0  0  0  0  0  0  0  0  0  0
   49.4886   49.4450   35.3282 C   0  0  0  0  0  0  0  0  0  0  0  0
   50.5463   49.0940   35.9949 O   0  0  0  0  0  0  0  0  0  0  0  0
   49.6672   49.4786   33.8752 C   0  0  1  0  0  0  0  0  0  0  0  0
   49.4440   50.7860   33.1888 C   0  0  0  0  0  0  0  0  0  0  0  0
   48.0892   51.3420   33.3334 C   0  0  0  0  0  0  0  0  0  0  0  0
   46.9943   50.4505   32.8022 C   0  0  0  0  0  0  0  0  0  0  0  0
   45.7335   51.2757   32.6898 C   0  0  0  0  0  0  0  0  0  0  0  0
   45.8426   52.6036   33.4213 C   0  0  0  0  0  0  0  0  0  0  0  0
   46.9435   53.4628   32.8657 C   0  0  0  0  0  0  0  0  0  0  0  0
   48.0544   52.5811   32.3846 C   0  0  0  0  0  0  0  0  0  0  0  0
   51.0167   48.9733   33.5330 N   0  0  0  0  0  0  0  0  0  0  0  0
   51.2084   47.9290   32.5849 C   0  0  0  0  0  0  0  0  0  0  0  0
   50.2210   47.4477   32.0442 O   0  0  0  0  0  0  0  0  0  0  0  0
   52.5645   47.5474   32.3539 N   0  0  0  0  0  0  0  0  0  0  0  0
   52.9140   46.5106   31.3690 C   0  0  1  0  0  0  0  0  0  0  0  0
   53.9593   46.9804   30.3886 C   0  0  0  0  0  0  0  0  0  0  0  0
   55.2031   47.3261   31.1214 C   0  0  0  0  0  0  0  0  0  0  0  0
   56.3387   47.8299   30.2964 C   0  0  0  0  0  0  0  0  0  0  0  0
   56.8667   46.9280   29.2450 C   0  0  0  0  0  0  0  0  0  0  0  0
   57.9792   47.6563   28.5990 N   0  0  0  0  0  0  0  0  0  0  0  0
   53.5407   45.3480   32.1062 C   0  0  0  0  0  0  0  0  0  0  0  0
   53.6148   44.2653   31.4644 O   0  0  0  0  0  0  0  0  0  0  0  0
   53.9974   45.4867   33.4035 O   0  0  0  0  0  0  0  0  0  0  0  0
   48.6287   51.1109   38.0429 C   0  0  0  0  0  0  0  0  0  0  0  0
  1  2  1  0
  2  3  1  0
  2  4  1  0
  4  5  1  6
  5  6  1  0
  6  7  1  0
  7  8  1  1
  7  9  1  0
  9 10  1  6
 10 11  1  0
 11 12  2  0
 11 13  1  0
 13 14  1  1
 14 15  1  0
 15 16  1  0
 16 17  1  0
 17 18  1  0
 18 19  1  0
 19 20  1  0
 13 21  1  0
 21 22  1  0
 22 23  2  0
 22 24  1  0
 24 25  1  0
 25 26  1  6
 26 27  1  0
 27 28  1  0
 28 29  1  0
 29 30  1  0
 25 31  1  0
 31 32  2  0
 31 33  1  0
  9 34  1  0
  7  2  1  0
 20 15  1  0
 34  4  1  0
M  CHG  2  30   1  33  -1
M  END
>  <shape_align_shape_tanimoto>  (2) 
0.55872458671094138

>  <shape_align_color_tanimoto>  (2) 
0.054187605980818607

>  <metric>  (2) 
color

>  <metric_score>  (2) 
0.054

>  <template_pid>  (2) 
4UIB

>  <template_shape_score>  (2) 
0.559

>  <template_color_score>  (2) 
0.054

>  <template_combo_score>  (2) 
0.306

$$$$
4UIB_combo_pose
     RDKit          3D

 34 36  0  0  0  0  0  0  0  0999 V2000
   46.6996   48.9995   40.4078 C   0  0  0  0  0  0  0  0  0  0  0  0
   47.5378   49.7524   39.4229 C   0  0  0  0  0  0  0  0  0  0  0  0
   48.9338   49.9929   39.9238 C   0  0  0  0  0  0  0  0  0  0  0  0
   46.8705   51.0569   38.9776 C   0  0  2  0  0  0  0  0  0  0  0  0
   45.5851   50.5266   38.4279 C   0  0  0  0  0  0  0  0  0  0  0  0
   46.0714   49.2675   37.6940 C   0  0  0  0  0  0  0  0  0  0  0  0
   47.5167   49.1094   38.0319 C   0  0  2  0  0  0  0  0  0  0  0  0
   48.0517   47.7332   38.0159 C   0  0  0  0  0  0  0  0  0  0  0  0
   48.3539   50.1223   37.2922 C   0  0  1  0  0  0  0  0  0  0  0  0
   48.2547   49.9959   35.8583 N   0  0  0  0  0  0  0  0  0  0  0  0
   49.4197   49.7734   35.1122 C   0  0  0  0  0  0  0  0  0  0  0  0
   50.5148   49.6950   35.7702 O   0  0  0  0  0  0  0  0  0  0  0  0
   49.5238   49.6160   33.6543 C   0  0  1  0  0  0  0  0  0  0  0  0
   49.3606   50.7985   32.8022 C   0  0  0  0  0  0  0  0  0  0  0  0
   48.1161   51.6000   32.7813 C   0  0  0  0  0  0  0  0  0  0  0  0
   46.8953   50.8522   32.3894 C   0  0  0  0  0  0  0  0  0  0  0  0
   45.6925   50.9177   33.2300 C   0  0  0  0  0  0  0  0  0  0  0  0
   45.5683   52.0331   34.1990 C   0  0  0  0  0  0  0  0  0  0  0  0
   46.5894   53.0917   34.1508 C   0  0  0  0  0  0  0  0  0  0  0  0
   47.9748   52.6696   33.8123 C   0  0  0  0  0  0  0  0  0  0  0  0
   50.9626   49.2605   33.4796 N   0  0  0  0  0  0  0  0  0  0  0  0
   51.3303   47.9941   32.9318 C   0  0  0  0  0  0  0  0  0  0  0  0
   50.4210   47.2195   32.6153 O   0  0  0  0  0  0  0  0  0  0  0  0
   52.7193   47.6527   32.7626 N   0  0  0  0  0  0  0  0  0  0  0  0
   53.2214   46.4657   32.2264 C   0  0  1  0  0  0  0  0  0  0  0  0
   53.3019   45.2105   32.9678 C   0  0  0  0  0  0  0  0  0  0  0  0
   54.0911   45.0260   34.1713 C   0  0  0  0  0  0  0  0  0  0  0  0
   53.8881   45.6416   35.4664 C   0  0  0  0  0  0  0  0  0  0  0  0
   53.9354   47.1077   35.6179 C   0  0  0  0  0  0  0  0  0  0  0  0
   53.8239   47.4381   37.0845 N   0  0  0  0  0  0  0  0  0  0  0  0
   52.6568   46.2004   30.8246 C   0  0  0  0  0  0  0  0  0  0  0  0
   51.5756   46.6618   30.4388 O   0  0  0  0  0  0  0  0  0  0  0  0
   53.3806   45.4088   29.9372 O   0  0  0  0  0  0  0  0  0  0  0  0
   47.7738   51.4215   37.8205 C   0  0  0  0  0  0  0  0  0  0  0  0
  1  2  1  0
  2  3  1  0
  2  4  1  0
  4  5  1  6
  5  6  1  0
  6  7  1  0
  7  8  1  1
  7  9  1  0
  9 10  1  6
 10 11  1  0
 11 12  2  0
 11 13  1  0
 13 14  1  6
 14 15  1  0
 15 16  1  0
 16 17  1  0
 17 18  1  0
 18 19  1  0
 19 20  1  0
 13 21  1  0
 21 22  1  0
 22 23  2  0
 22 24  1  0
 24 25  1  0
 25 26  1  1
 26 27  1  0
 27 28  1  0
 28 29  1  0
 29 30  1  0
 25 31  1  0
 31 32  2  0
 31 33  1  0
  9 34  1  0
  7  2  1  0
 20 15  1  0
 34  4  1  0
M  CHG  2  30   1  33  -1
M  END
>  <shape_align_shape_tanimoto>  (3) 
0.60011458841624188

>  <shape_align_color_tanimoto>  (3) 
0.050171853293644077

>  <metric>  (3) 
combo

>  <metric_score>  (3) 
0.325

>  <template_pid>  (3) 
4UIB

>  <template_shape_score>  (3) 
0.600

>  <template_color_score>  (3) 
0.050

>  <template_combo_score>  (3) 
0.325

$$$$
