4BHZ_shape_pose
     RDKit          3D

 13 15  0  0  0  0  0  0  0  0999 V2000
    3.0614   -2.8521   19.9345 C   0  0  0  0  0  0  0  0  0  0  0  0
    4.3316   -2.3155   19.9047 C   0  0  0  0  0  0  0  0  0  0  0  0
    5.3189   -2.7421   19.0420 C   0  0  0  0  0  0  0  0  0  0  0  0
    6.5471   -2.1211   19.1149 C   0  0  0  0  0  0  0  0  0  0  0  0
    7.4828   -2.5887   18.2343 N   0  0  0  0  0  0  0  0  0  0  0  0
    7.1998   -3.5689   17.3846 C   0  0  0  0  0  0  0  0  0  0  0  0
    8.2637   -4.3759   16.1095 S   0  0  0  0  0  0  0  0  0  0  0  0
    6.9847   -5.4775   15.5811 C   0  0  0  0  0  0  0  0  0  0  0  0
    5.9184   -5.1906   16.3397 C   0  0  0  0  0  0  0  0  0  0  0  0
    5.9990   -4.2272   17.2625 C   0  0  0  0  0  0  0  0  0  0  0  0
    5.0147   -3.7582   18.1661 C   0  0  0  0  0  0  0  0  0  0  0  0
    3.7501   -4.2934   18.1948 C   0  0  0  0  0  0  0  0  0  0  0  0
    2.8110   -3.8476   19.0551 N   0  0  0  0  0  0  0  0  0  0  0  0
  1  2  2  0
  2  3  1  0
  3  4  2  0
  4  5  1  0
  5  6  2  0
  6  7  1  0
  7  8  1  0
  8  9  2  0
  9 10  1  0
 10 11  2  0
 11 12  1  0
 12 13  2  0
 13  1  1  0
 11  3  1  0
 10  6  1  0
M  END
>  <shape_align_shape_tanimoto>  (1) 
0.62922308312419861

>  <shape_align_color_tanimoto>  (1) 
0.11184189641572551

>  <metric>  (1) 
shape

>  <metric_score>  (1) 
0.629

>  <template_pid>  (1) 
4BHZ

>  <template_shape_score>  (1) 
0.629

>  <template_color_score>  (1) 
0.112

>  <template_combo_score>  (1) 
0.371

$$$$
4BHZ_color_pose
     RDKit          3D

 13 15  0  0  0  0  0  0  0  0999 V2000
    7.5483   -5.3875   15.5608 C   0  0  0  0  0  0  0  0  0  0  0  0
    6.2591   -5.7757   15.8807 C   0  0  0  0  0  0  0  0  0  0  0  0
    5.5153   -5.1096   16.8399 C   0  0  0  0  0  0  0  0  0  0  0  0
    4.2278   -5.5371   17.1247 C   0  0  0  0  0  0  0  0  0  0  0  0
    3.5652   -4.8525   18.0585 N   0  0  0  0  0  0  0  0  0  0  0  0
    4.1379   -3.7951   18.6865 C   0  0  0  0  0  0  0  0  0  0  0  0
    3.4678   -2.7070   19.9754 S   0  0  0  0  0  0  0  0  0  0  0  0
    4.9298   -1.7295   20.0802 C   0  0  0  0  0  0  0  0  0  0  0  0
    5.8123   -2.2694   19.1601 C   0  0  0  0  0  0  0  0  0  0  0  0
    5.3992   -3.3224   18.4545 C   0  0  0  0  0  0  0  0  0  0  0  0
    6.1127   -4.0406   17.4654 C   0  0  0  0  0  0  0  0  0  0  0  0
    7.3940   -3.6987   17.1093 C   0  0  0  0  0  0  0  0  0  0  0  0
    8.1062   -4.3385   16.1892 N   0  0  0  0  0  0  0  0  0  0  0  0
  1  2  2  0
  2  3  1  0
  3  4  2  0
  4  5  1  0
  5  6  2  0
  6  7  1  0
  7  8  1  0
  8  9  2  0
  9 10  1  0
 10 11  2  0
 11 12  1  0
 12 13  2  0
 13  1  1  0
 11  3  1  0
 10  6  1  0
M  END
>  <shape_align_shape_tanimoto>  (2) 
0.61279985119026326

>  <shape_align_color_tanimoto>  (2) 
0.25780483900542212

>  <metric>  (2) 
color

>  <metric_score>  (2) 
0.258

>  <template_pid>  (2) 
4BHZ

>  <template_shape_score>  (2) 
0.613

>  <template_color_score>  (2) 
0.258

>  <template_combo_score>  (2) 
0.435

$$$$
4BHZ_combo_pose
     RDKit          3D

 13 15  0  0  0  0  0  0  0  0999 V2000
    7.5483   -5.3875   15.5608 C   0  0  0  0  0  0  0  0  0  0  0  0
    6.2591   -5.7757   15.8807 C   0  0  0  0  0  0  0  0  0  0  0  0
    5.5153   -5.1096   16.8399 C   0  0  0  0  0  0  0  0  0  0  0  0
    4.2278   -5.5371   17.1247 C   0  0  0  0  0  0  0  0  0  0  0  0
    3.5652   -4.8525   18.0585 N   0  0  0  0  0  0  0  0  0  0  0  0
    4.1379   -3.7951   18.6865 C   0  0  0  0  0  0  0  0  0  0  0  0
    3.4678   -2.7070   19.9754 S   0  0  0  0  0  0  0  0  0  0  0  0
    4.9298   -1.7295   20.0802 C   0  0  0  0  0  0  0  0  0  0  0  0
    5.8123   -2.2694   19.1601 C   0  0  0  0  0  0  0  0  0  0  0  0
    5.3992   -3.3224   18.4545 C   0  0  0  0  0  0  0  0  0  0  0  0
    6.1127   -4.0406   17.4654 C   0  0  0  0  0  0  0  0  0  0  0  0
    7.3940   -3.6987   17.1093 C   0  0  0  0  0  0  0  0  0  0  0  0
    8.1062   -4.3385   16.1892 N   0  0  0  0  0  0  0  0  0  0  0  0
  1  2  2  0
  2  3  1  0
  3  4  2  0
  4  5  1  0
  5  6  2  0
  6  7  1  0
  7  8  1  0
  8  9  2  0
  9 10  1  0
 10 11  2  0
 11 12  1  0
 12 13  2  0
 13  1  1  0
 11  3  1  0
 10  6  1  0
M  END
>  <shape_align_shape_tanimoto>  (3) 
0.61279985119026326

>  <shape_align_color_tanimoto>  (3) 
0.25780483900542212

>  <metric>  (3) 
combo

>  <metric_score>  (3) 
0.435

>  <template_pid>  (3) 
4BHZ

>  <template_shape_score>  (3) 
0.613

>  <template_color_score>  (3) 
0.258

>  <template_combo_score>  (3) 
0.435

$$$$
