2WC4_shape_pose
     RDKit          3D

 22 23  0  0  0  0  0  0  0  0999 V2000
  -14.5267   11.9712   -8.6606 C   0  0  0  0  0  0  0  0  0  0  0  0
  -14.2738   11.5815   -7.2038 C   0  0  0  0  0  0  0  0  0  0  0  0
  -13.6219   10.2333   -7.2111 C   0  0  0  0  0  0  0  0  0  0  0  0
  -13.3034    9.6970   -5.8350 C   0  0  0  0  0  0  0  0  0  0  0  0
  -12.3607   10.6238   -5.1077 C   0  0  0  0  0  0  0  0  0  0  0  0
  -12.0109   10.1272   -3.7210 C   0  0  0  0  0  0  0  0  0  0  0  0
  -11.3426    8.7810   -3.7517 C   0  0  0  0  0  0  0  0  0  0  0  0
  -11.0090    8.3237   -2.3251 C   0  0  0  0  0  0  0  0  0  0  0  0
  -10.3716    7.0212   -2.4775 N   0  0  0  0  0  0  0  0  0  0  0  0
  -11.0978    6.0257   -2.7895 C   0  0  0  0  0  0  0  0  0  0  0  0
  -12.8883    5.9896   -3.0852 S   0  0  0  0  0  0  0  0  0  0  0  0
  -12.9642    4.1684   -3.3655 C   0  0  0  0  0  0  0  0  0  0  0  0
  -11.5336    4.0077   -3.8868 C   0  0  2  0  0  0  0  0  0  0  0  0
  -11.1577    2.6399   -4.2539 C   0  0  1  0  0  0  0  0  0  0  0  0
  -10.2517    2.6932   -5.3338 O   0  0  0  0  0  0  0  0  0  0  0  0
  -10.5988    1.7958   -3.1558 C   0  0  2  0  0  0  0  0  0  0  0  0
  -11.5823    0.9256   -2.6669 O   0  0  0  0  0  0  0  0  0  0  0  0
  -10.0012    2.5928   -2.0284 C   0  0  1  0  0  0  0  0  0  0  0  0
   -8.9827    1.8580   -1.4235 O   0  0  0  0  0  0  0  0  0  0  0  0
   -9.5219    3.9472   -2.4276 C   0  0  2  0  0  0  0  0  0  0  0  0
   -9.0023    4.5499   -1.2831 O   0  0  0  0  0  0  0  0  0  0  0  0
  -10.6577    4.6785   -2.9825 N   0  0  0  0  0  0  0  0  0  0  0  0
  1  2  1  0
  2  3  1  0
  3  4  1  0
  4  5  1  0
  5  6  1  0
  6  7  1  0
  7  8  1  0
  8  9  1  0
  9 10  2  0
 10 11  1  0
 11 12  1  0
 13 12  1  1
 13 14  1  0
 14 15  1  6
 14 16  1  0
 16 17  1  1
 16 18  1  0
 18 19  1  6
 18 20  1  0
 20 21  1  1
 20 22  1  0
 22 10  1  0
 22 13  1  0
M  END
>  <shape_align_shape_tanimoto>  (1) 
0.59251700372624949

>  <shape_align_color_tanimoto>  (1) 
0.077597967599591297

>  <metric>  (1) 
shape

>  <metric_score>  (1) 
0.593

>  <template_pid>  (1) 
2WC4

>  <template_shape_score>  (1) 
0.593

>  <template_color_score>  (1) 
0.078

>  <template_combo_score>  (1) 
0.335

$$$$
2WC4_color_pose
     RDKit          3D

 22 23  0  0  0  0  0  0  0  0999 V2000
  -13.9497   10.1733   -3.6803 C   0  0  0  0  0  0  0  0  0  0  0  0
  -12.7029    9.7044   -2.9557 C   0  0  0  0  0  0  0  0  0  0  0  0
  -11.6697    9.3309   -3.9994 C   0  0  0  0  0  0  0  0  0  0  0  0
  -10.4138    8.8590   -3.3113 C   0  0  0  0  0  0  0  0  0  0  0  0
   -9.3394    8.4686   -4.2413 C   0  0  0  0  0  0  0  0  0  0  0  0
   -9.5252    7.4359   -5.2582 C   0  0  0  0  0  0  0  0  0  0  0  0
   -9.8700    6.0511   -4.8557 C   0  0  0  0  0  0  0  0  0  0  0  0
  -11.1839    5.9017   -4.2090 C   0  0  0  0  0  0  0  0  0  0  0  0
  -11.4471    4.4771   -3.8517 N   0  0  0  0  0  0  0  0  0  0  0  0
  -10.8175    3.9451   -2.8818 C   0  0  0  0  0  0  0  0  0  0  0  0
   -9.5932    4.7076   -1.8278 S   0  0  0  0  0  0  0  0  0  0  0  0
   -8.9342    3.1636   -1.1489 C   0  0  0  0  0  0  0  0  0  0  0  0
   -9.8455    2.1371   -1.6512 C   0  0  2  0  0  0  0  0  0  0  0  0
   -9.1620    1.1595   -2.6319 C   0  0  1  0  0  0  0  0  0  0  0  0
   -7.9673    0.6990   -2.1436 O   0  0  0  0  0  0  0  0  0  0  0  0
  -10.1244    0.0205   -2.7641 C   0  0  2  0  0  0  0  0  0  0  0  0
   -9.5781   -0.8421   -3.7356 O   0  0  0  0  0  0  0  0  0  0  0  0
  -11.5032    0.3662   -3.1815 C   0  0  1  0  0  0  0  0  0  0  0  0
  -12.3504   -0.6607   -2.7662 O   0  0  0  0  0  0  0  0  0  0  0  0
  -12.0551    1.6577   -2.6210 C   0  0  2  0  0  0  0  0  0  0  0  0
  -13.0130    2.1956   -3.4423 O   0  0  0  0  0  0  0  0  0  0  0  0
  -10.9481    2.6233   -2.4200 N   0  0  0  0  0  0  0  0  0  0  0  0
  1  2  1  0
  2  3  1  0
  3  4  1  0
  4  5  1  0
  5  6  1  0
  6  7  1  0
  7  8  1  0
  8  9  1  0
  9 10  2  0
 10 11  1  0
 11 12  1  0
 13 12  1  6
 13 14  1  0
 14 15  1  1
 14 16  1  0
 16 17  1  6
 16 18  1  0
 18 19  1  1
 18 20  1  0
 20 21  1  6
 20 22  1  0
 22 10  1  0
 22 13  1  0
M  END
>  <shape_align_shape_tanimoto>  (2) 
0.45667742857237464

>  <shape_align_color_tanimoto>  (2) 
0.14470077785949248

>  <metric>  (2) 
color

>  <metric_score>  (2) 
0.145

>  <template_pid>  (2) 
2WC4

>  <template_shape_score>  (2) 
0.457

>  <template_color_score>  (2) 
0.145

>  <template_combo_score>  (2) 
0.301

$$$$
2WC4_combo_pose
     RDKit          3D

 22 23  0  0  0  0  0  0  0  0999 V2000
  -14.5267   11.9712   -8.6606 C   0  0  0  0  0  0  0  0  0  0  0  0
  -14.2738   11.5815   -7.2038 C   0  0  0  0  0  0  0  0  0  0  0  0
  -13.6219   10.2333   -7.2111 C   0  0  0  0  0  0  0  0  0  0  0  0
  -13.3034    9.6970   -5.8350 C   0  0  0  0  0  0  0  0  0  0  0  0
  -12.3607   10.6238   -5.1077 C   0  0  0  0  0  0  0  0  0  0  0  0
  -12.0109   10.1272   -3.7210 C   0  0  0  0  0  0  0  0  0  0  0  0
  -11.3426    8.7810   -3.7517 C   0  0  0  0  0  0  0  0  0  0  0  0
  -11.0090    8.3237   -2.3251 C   0  0  0  0  0  0  0  0  0  0  0  0
  -10.3716    7.0212   -2.4775 N   0  0  0  0  0  0  0  0  0  0  0  0
  -11.0978    6.0257   -2.7895 C   0  0  0  0  0  0  0  0  0  0  0  0
  -12.8883    5.9896   -3.0852 S   0  0  0  0  0  0  0  0  0  0  0  0
  -12.9642    4.1684   -3.3655 C   0  0  0  0  0  0  0  0  0  0  0  0
  -11.5336    4.0077   -3.8868 C   0  0  2  0  0  0  0  0  0  0  0  0
  -11.1577    2.6399   -4.2539 C   0  0  1  0  0  0  0  0  0  0  0  0
  -10.2517    2.6932   -5.3338 O   0  0  0  0  0  0  0  0  0  0  0  0
  -10.5988    1.7958   -3.1558 C   0  0  2  0  0  0  0  0  0  0  0  0
  -11.5823    0.9256   -2.6669 O   0  0  0  0  0  0  0  0  0  0  0  0
  -10.0012    2.5928   -2.0284 C   0  0  1  0  0  0  0  0  0  0  0  0
   -8.9827    1.8580   -1.4235 O   0  0  0  0  0  0  0  0  0  0  0  0
   -9.5219    3.9472   -2.4276 C   0  0  2  0  0  0  0  0  0  0  0  0
   -9.0023    4.5499   -1.2831 O   0  0  0  0  0  0  0  0  0  0  0  0
  -10.6577    4.6785   -2.9825 N   0  0  0  0  0  0  0  0  0  0  0  0
  1  2  1  0
  2  3  1  0
  3  4  1  0
  4  5  1  0
  5  6  1  0
  6  7  1  0
  7  8  1  0
  8  9  1  0
  9 10  2  0
 10 11  1  0
 11 12  1  0
 13 12  1  1
 13 14  1  0
 14 15  1  6
 14 16  1  0
 16 17  1  1
 16 18  1  0
 18 19  1  6
 18 20  1  0
 20 21  1  1
 20 22  1  0
 22 10  1  0
 22 13  1  0
M  END
>  <shape_align_shape_tanimoto>  (3) 
0.59251700372624949

>  <shape_align_color_tanimoto>  (3) 
0.077597967599591297

>  <metric>  (3) 
combo

>  <metric_score>  (3) 
0.335

>  <template_pid>  (3) 
2WC4

>  <template_shape_score>  (3) 
0.593

>  <template_color_score>  (3) 
0.078

>  <template_combo_score>  (3) 
0.335

$$$$
