2XN7_shape_pose
     RDKit          3D

 51 57  0  0  0  0  0  0  0  0999 V2000
   -9.7175  -49.7338  -65.8574 O   0  0  0  0  0  0  0  0  0  0  0  0
  -10.2322  -48.6839  -66.3226 C   0  0  0  0  0  0  0  0  0  0  0  0
  -10.7608  -48.7254  -67.6294 N   0  0  0  0  0  0  0  0  0  0  0  0
  -10.7529  -49.9241  -68.4568 C   0  0  1  0  0  0  0  0  0  0  0  0
  -12.1513  -50.2926  -68.8360 C   0  0  0  0  0  0  0  0  0  0  0  0
  -12.8957  -49.2714  -69.6089 C   0  0  0  0  0  0  0  0  0  0  0  0
  -13.5426  -48.2092  -68.9586 C   0  0  0  0  0  0  0  0  0  0  0  0
  -14.2540  -47.2583  -69.6708 C   0  0  0  0  0  0  0  0  0  0  0  0
  -15.2080  -45.7386  -68.5300 I   0  0  0  0  0  0  0  0  0  0  0  0
  -14.3676  -47.2990  -71.0490 C   0  0  0  0  0  0  0  0  0  0  0  0
  -15.0781  -46.3372  -71.7488 O   0  0  0  0  0  0  0  0  0  0  0  0
  -14.5528  -45.2565  -72.4071 C   0  0  0  0  0  0  0  0  0  0  0  0
  -13.7382  -44.2970  -71.8469 C   0  0  0  0  0  0  0  0  0  0  0  0
  -13.2456  -43.2186  -72.5941 C   0  0  0  0  0  0  0  0  0  0  0  0
  -11.9963  -41.7751  -71.7124 I   0  0  0  0  0  0  0  0  0  0  0  0
  -13.5537  -43.0674  -73.9284 C   0  0  0  0  0  0  0  0  0  0  0  0
  -13.0475  -41.9880  -74.6360 O   0  0  0  0  0  0  0  0  0  0  0  0
  -14.3651  -44.0224  -74.4921 C   0  0  0  0  0  0  0  0  0  0  0  0
  -14.8330  -43.7861  -76.5480 I   0  0  0  0  0  0  0  0  0  0  0  0
  -14.8497  -45.0803  -73.7606 C   0  0  0  0  0  0  0  0  0  0  0  0
  -13.7360  -48.3430  -71.6957 C   0  0  0  0  0  0  0  0  0  0  0  0
  -13.8353  -48.5425  -73.7942 I   0  0  0  0  0  0  0  0  0  0  0  0
  -13.0281  -49.2879  -70.9793 C   0  0  0  0  0  0  0  0  0  0  0  0
   -9.7968  -49.8402  -69.5511 C   0  0  0  0  0  0  0  0  0  0  0  0
   -8.5565  -49.8911  -69.2456 O   0  0  0  0  0  0  0  0  0  0  0  0
  -10.0684  -49.7100  -70.8951 O   0  0  0  0  0  0  0  0  0  0  0  0
  -10.2363  -47.5087  -65.4659 C   0  0  0  0  0  0  0  0  0  0  0  0
   -9.4881  -47.4733  -64.3092 C   0  0  0  0  0  0  0  0  0  0  0  0
   -9.5441  -46.3273  -63.5039 C   0  0  0  0  0  0  0  0  0  0  0  0
  -10.3038  -45.2411  -63.8079 C   0  0  0  0  0  0  0  0  0  0  0  0
  -11.0547  -45.2951  -64.9815 C   0  0  0  0  0  0  0  0  0  0  0  0
  -11.0313  -46.4078  -65.8106 C   0  0  0  0  0  0  0  0  0  0  0  0
  -11.7909  -44.0379  -65.0433 C   0  0  0  0  0  0  0  0  0  0  0  0
  -12.5800  -43.7476  -65.9935 O   0  0  0  0  0  0  0  0  0  0  0  0
  -11.5033  -43.2423  -63.9464 O   0  0  0  0  0  0  0  0  0  0  0  0
  -10.5307  -43.9143  -63.1540 C   0  0  0  0  0  0  0  0  0  0  0  0
   -9.2422  -43.1286  -63.2163 C   0  0  0  0  0  0  0  0  0  0  0  0
   -8.7197  -42.9653  -64.4912 C   0  0  0  0  0  0  0  0  0  0  0  0
   -7.5432  -42.2519  -64.6176 C   0  0  0  0  0  0  0  0  0  0  0  0
   -6.9225  -41.7280  -63.5151 C   0  0  0  0  0  0  0  0  0  0  0  0
   -5.7449  -41.0072  -63.5984 O   0  0  0  0  0  0  0  0  0  0  0  0
   -7.4672  -41.9074  -62.2552 C   0  0  0  0  0  0  0  0  0  0  0  0
   -8.6412  -42.6150  -62.0886 C   0  0  0  0  0  0  0  0  0  0  0  0
   -9.2326  -42.8273  -60.8570 O   0  0  0  0  0  0  0  0  0  0  0  0
  -10.3949  -43.5268  -60.6759 C   0  0  0  0  0  0  0  0  0  0  0  0
  -10.9007  -43.6849  -59.4032 C   0  0  0  0  0  0  0  0  0  0  0  0
  -12.0704  -44.3965  -59.2721 C   0  0  0  0  0  0  0  0  0  0  0  0
  -12.5802  -44.5567  -57.9925 O   0  0  0  0  0  0  0  0  0  0  0  0
  -12.7477  -44.9501  -60.3471 C   0  0  0  0  0  0  0  0  0  0  0  0
  -12.2126  -44.7719  -61.6095 C   0  0  0  0  0  0  0  0  0  0  0  0
  -11.0348  -44.0602  -61.7789 C   0  0  0  0  0  0  0  0  0  0  0  0
  1  2  2  0
  2  3  1  0
  3  4  1  0
  4  5  1  6
  5  6  1  0
  6  7  2  0
  7  8  1  0
  8  9  1  0
  8 10  2  0
 10 11  1  0
 11 12  1  0
 12 13  2  0
 13 14  1  0
 14 15  1  0
 14 16  2  0
 16 17  1  0
 16 18  1  0
 18 19  1  0
 18 20  2  0
 10 21  1  0
 21 22  1  0
 21 23  2  0
  4 24  1  0
 24 25  2  0
 24 26  1  0
  2 27  1  0
 27 28  2  0
 28 29  1  0
 29 30  2  0
 30 31  1  0
 31 32  2  0
 31 33  1  0
 33 34  2  0
 33 35  1  0
 35 36  1  0
 36 37  1  0
 37 38  2  0
 38 39  1  0
 39 40  2  0
 40 41  1  0
 40 42  1  0
 42 43  2  0
 43 44  1  0
 44 45  1  0
 45 46  2  0
 46 47  1  0
 47 48  1  0
 47 49  2  0
 49 50  1  0
 50 51  2  0
 23  6  1  0
 32 27  1  0
 51 36  1  0
 20 12  1  0
 36 30  1  0
 43 37  1  0
 51 45  1  0
M  CHG  1  26  -1
M  END
>  <shape_align_shape_tanimoto>  (1) 
0.37022159266287696

>  <shape_align_color_tanimoto>  (1) 
0.041946876235127828

>  <metric>  (1) 
shape

>  <metric_score>  (1) 
0.370

>  <template_pid>  (1) 
2XN7

>  <template_shape_score>  (1) 
0.370

>  <template_color_score>  (1) 
0.042

>  <template_combo_score>  (1) 
0.206

$$$$
2XN7_color_pose
     RDKit          3D

 51 57  0  0  0  0  0  0  0  0999 V2000
   -8.6324  -47.9602  -65.7725 O   0  0  0  0  0  0  0  0  0  0  0  0
   -9.7652  -47.5340  -66.0494 C   0  0  0  0  0  0  0  0  0  0  0  0
  -10.5039  -48.0885  -67.0896 N   0  0  0  0  0  0  0  0  0  0  0  0
   -9.9839  -49.1869  -67.8963 C   0  0  1  0  0  0  0  0  0  0  0  0
  -10.9487  -50.3117  -67.8475 C   0  0  0  0  0  0  0  0  0  0  0  0
  -10.5978  -51.4932  -68.5775 C   0  0  0  0  0  0  0  0  0  0  0  0
   -9.7560  -52.3952  -67.9581 C   0  0  0  0  0  0  0  0  0  0  0  0
   -9.3784  -53.5490  -68.5375 C   0  0  0  0  0  0  0  0  0  0  0  0
   -8.1009  -54.8356  -67.5026 I   0  0  0  0  0  0  0  0  0  0  0  0
   -9.8146  -53.8738  -69.7651 C   0  0  0  0  0  0  0  0  0  0  0  0
   -9.4371  -55.0464  -70.3669 O   0  0  0  0  0  0  0  0  0  0  0  0
  -10.2066  -56.1696  -70.1881 C   0  0  0  0  0  0  0  0  0  0  0  0
   -9.8925  -57.3697  -70.7455 C   0  0  0  0  0  0  0  0  0  0  0  0
  -10.6712  -58.4722  -70.5552 C   0  0  0  0  0  0  0  0  0  0  0  0
  -10.1586  -60.2867  -71.4227 I   0  0  0  0  0  0  0  0  0  0  0  0
  -11.7883  -58.3687  -69.7897 C   0  0  0  0  0  0  0  0  0  0  0  0
  -12.5724  -59.4834  -69.5995 O   0  0  0  0  0  0  0  0  0  0  0  0
  -12.1387  -57.1877  -69.2140 C   0  0  0  0  0  0  0  0  0  0  0  0
  -13.8467  -57.0036  -68.0369 I   0  0  0  0  0  0  0  0  0  0  0  0
  -11.3331  -56.1214  -69.4328 C   0  0  0  0  0  0  0  0  0  0  0  0
  -10.6389  -53.0245  -70.4097 C   0  0  0  0  0  0  0  0  0  0  0  0
  -11.3105  -53.5145  -72.2884 I   0  0  0  0  0  0  0  0  0  0  0  0
  -11.0229  -51.8435  -69.8102 C   0  0  0  0  0  0  0  0  0  0  0  0
   -9.7825  -48.7251  -69.2509 C   0  0  0  0  0  0  0  0  0  0  0  0
  -10.4617  -48.9707  -70.2361 O   0  0  0  0  0  0  0  0  0  0  0  0
   -8.6834  -47.9009  -69.4634 O   0  0  0  0  0  0  0  0  0  0  0  0
  -10.2585  -46.4484  -65.2412 C   0  0  0  0  0  0  0  0  0  0  0  0
   -9.4743  -45.9364  -64.2582 C   0  0  0  0  0  0  0  0  0  0  0  0
   -9.9087  -44.9118  -63.4826 C   0  0  0  0  0  0  0  0  0  0  0  0
  -11.1393  -44.3485  -63.6463 C   0  0  0  0  0  0  0  0  0  0  0  0
  -11.9155  -44.8698  -64.6332 C   0  0  0  0  0  0  0  0  0  0  0  0
  -11.4887  -45.8976  -65.4166 C   0  0  0  0  0  0  0  0  0  0  0  0
  -13.1282  -44.0913  -64.5581 C   0  0  0  0  0  0  0  0  0  0  0  0
  -14.1341  -44.2273  -65.2900 O   0  0  0  0  0  0  0  0  0  0  0  0
  -13.0538  -43.1687  -63.5769 O   0  0  0  0  0  0  0  0  0  0  0  0
  -11.8160  -43.2649  -62.9696 C   0  0  0  0  0  0  0  0  0  0  0  0
  -11.1509  -41.9694  -63.2492 C   0  0  0  0  0  0  0  0  0  0  0  0
  -10.9984  -41.6729  -64.5743 C   0  0  0  0  0  0  0  0  0  0  0  0
  -10.4042  -40.5148  -64.9543 C   0  0  0  0  0  0  0  0  0  0  0  0
   -9.9667  -39.6609  -63.9866 C   0  0  0  0  0  0  0  0  0  0  0  0
   -9.3627  -38.4832  -64.3642 O   0  0  0  0  0  0  0  0  0  0  0  0
  -10.1165  -39.9522  -62.6527 C   0  0  0  0  0  0  0  0  0  0  0  0
  -10.7210  -41.1310  -62.2855 C   0  0  0  0  0  0  0  0  0  0  0  0
  -10.8838  -41.4489  -60.9686 O   0  0  0  0  0  0  0  0  0  0  0  0
  -11.4813  -42.6148  -60.5862 C   0  0  0  0  0  0  0  0  0  0  0  0
  -11.6075  -42.8614  -59.2544 C   0  0  0  0  0  0  0  0  0  0  0  0
  -12.1977  -44.0135  -58.8312 C   0  0  0  0  0  0  0  0  0  0  0  0
  -12.3131  -44.2389  -57.4902 O   0  0  0  0  0  0  0  0  0  0  0  0
  -12.6450  -44.8864  -59.7771 C   0  0  0  0  0  0  0  0  0  0  0  0
  -12.5078  -44.6184  -61.1084 C   0  0  0  0  0  0  0  0  0  0  0  0
  -11.9187  -43.4682  -61.5348 C   0  0  0  0  0  0  0  0  0  0  0  0
  1  2  2  0
  2  3  1  0
  3  4  1  0
  4  5  1  6
  5  6  1  0
  6  7  2  0
  7  8  1  0
  8  9  1  0
  8 10  2  0
 10 11  1  0
 11 12  1  0
 12 13  2  0
 13 14  1  0
 14 15  1  0
 14 16  2  0
 16 17  1  0
 16 18  1  0
 18 19  1  0
 18 20  2  0
 10 21  1  0
 21 22  1  0
 21 23  2  0
  4 24  1  0
 24 25  2  0
 24 26  1  0
  2 27  1  0
 27 28  2  0
 28 29  1  0
 29 30  2  0
 30 31  1  0
 31 32  2  0
 31 33  1  0
 33 34  2  0
 33 35  1  0
 35 36  1  0
 36 37  1  0
 37 38  2  0
 38 39  1  0
 39 40  2  0
 40 41  1  0
 40 42  1  0
 42 43  2  0
 43 44  1  0
 44 45  1  0
 45 46  2  0
 46 47  1  0
 47 48  1  0
 47 49  2  0
 49 50  1  0
 50 51  2  0
 23  6  1  0
 32 27  1  0
 51 36  1  0
 20 12  1  0
 36 30  1  0
 43 37  1  0
 51 45  1  0
M  CHG  1  26  -1
M  END
>  <shape_align_shape_tanimoto>  (2) 
0.31855242311601872

>  <shape_align_color_tanimoto>  (2) 
0.050511939586030778

>  <metric>  (2) 
color

>  <metric_score>  (2) 
0.051

>  <template_pid>  (2) 
2XN7

>  <template_shape_score>  (2) 
0.319

>  <template_color_score>  (2) 
0.051

>  <template_combo_score>  (2) 
0.185

$$$$
2XN7_combo_pose
     RDKit          3D

 51 57  0  0  0  0  0  0  0  0999 V2000
   -9.7175  -49.7338  -65.8574 O   0  0  0  0  0  0  0  0  0  0  0  0
  -10.2322  -48.6839  -66.3226 C   0  0  0  0  0  0  0  0  0  0  0  0
  -10.7608  -48.7254  -67.6294 N   0  0  0  0  0  0  0  0  0  0  0  0
  -10.7529  -49.9241  -68.4568 C   0  0  1  0  0  0  0  0  0  0  0  0
  -12.1513  -50.2926  -68.8360 C   0  0  0  0  0  0  0  0  0  0  0  0
  -12.8957  -49.2714  -69.6089 C   0  0  0  0  0  0  0  0  0  0  0  0
  -13.5426  -48.2092  -68.9586 C   0  0  0  0  0  0  0  0  0  0  0  0
  -14.2540  -47.2583  -69.6708 C   0  0  0  0  0  0  0  0  0  0  0  0
  -15.2080  -45.7386  -68.5300 I   0  0  0  0  0  0  0  0  0  0  0  0
  -14.3676  -47.2990  -71.0490 C   0  0  0  0  0  0  0  0  0  0  0  0
  -15.0781  -46.3372  -71.7488 O   0  0  0  0  0  0  0  0  0  0  0  0
  -14.5528  -45.2565  -72.4071 C   0  0  0  0  0  0  0  0  0  0  0  0
  -13.7382  -44.2970  -71.8469 C   0  0  0  0  0  0  0  0  0  0  0  0
  -13.2456  -43.2186  -72.5941 C   0  0  0  0  0  0  0  0  0  0  0  0
  -11.9963  -41.7751  -71.7124 I   0  0  0  0  0  0  0  0  0  0  0  0
  -13.5537  -43.0674  -73.9284 C   0  0  0  0  0  0  0  0  0  0  0  0
  -13.0475  -41.9880  -74.6360 O   0  0  0  0  0  0  0  0  0  0  0  0
  -14.3651  -44.0224  -74.4921 C   0  0  0  0  0  0  0  0  0  0  0  0
  -14.8330  -43.7861  -76.5480 I   0  0  0  0  0  0  0  0  0  0  0  0
  -14.8497  -45.0803  -73.7606 C   0  0  0  0  0  0  0  0  0  0  0  0
  -13.7360  -48.3430  -71.6957 C   0  0  0  0  0  0  0  0  0  0  0  0
  -13.8353  -48.5425  -73.7942 I   0  0  0  0  0  0  0  0  0  0  0  0
  -13.0281  -49.2879  -70.9793 C   0  0  0  0  0  0  0  0  0  0  0  0
   -9.7968  -49.8402  -69.5511 C   0  0  0  0  0  0  0  0  0  0  0  0
   -8.5565  -49.8911  -69.2456 O   0  0  0  0  0  0  0  0  0  0  0  0
  -10.0684  -49.7100  -70.8951 O   0  0  0  0  0  0  0  0  0  0  0  0
  -10.2363  -47.5087  -65.4659 C   0  0  0  0  0  0  0  0  0  0  0  0
   -9.4881  -47.4733  -64.3092 C   0  0  0  0  0  0  0  0  0  0  0  0
   -9.5441  -46.3273  -63.5039 C   0  0  0  0  0  0  0  0  0  0  0  0
  -10.3038  -45.2411  -63.8079 C   0  0  0  0  0  0  0  0  0  0  0  0
  -11.0547  -45.2951  -64.9815 C   0  0  0  0  0  0  0  0  0  0  0  0
  -11.0313  -46.4078  -65.8106 C   0  0  0  0  0  0  0  0  0  0  0  0
  -11.7909  -44.0379  -65.0433 C   0  0  0  0  0  0  0  0  0  0  0  0
  -12.5800  -43.7476  -65.9935 O   0  0  0  0  0  0  0  0  0  0  0  0
  -11.5033  -43.2423  -63.9464 O   0  0  0  0  0  0  0  0  0  0  0  0
  -10.5307  -43.9143  -63.1540 C   0  0  0  0  0  0  0  0  0  0  0  0
   -9.2422  -43.1286  -63.2163 C   0  0  0  0  0  0  0  0  0  0  0  0
   -8.7197  -42.9653  -64.4912 C   0  0  0  0  0  0  0  0  0  0  0  0
   -7.5432  -42.2519  -64.6176 C   0  0  0  0  0  0  0  0  0  0  0  0
   -6.9225  -41.7280  -63.5151 C   0  0  0  0  0  0  0  0  0  0  0  0
   -5.7449  -41.0072  -63.5984 O   0  0  0  0  0  0  0  0  0  0  0  0
   -7.4672  -41.9074  -62.2552 C   0  0  0  0  0  0  0  0  0  0  0  0
   -8.6412  -42.6150  -62.0886 C   0  0  0  0  0  0  0  0  0  0  0  0
   -9.2326  -42.8273  -60.8570 O   0  0  0  0  0  0  0  0  0  0  0  0
  -10.3949  -43.5268  -60.6759 C   0  0  0  0  0  0  0  0  0  0  0  0
  -10.9007  -43.6849  -59.4032 C   0  0  0  0  0  0  0  0  0  0  0  0
  -12.0704  -44.3965  -59.2721 C   0  0  0  0  0  0  0  0  0  0  0  0
  -12.5802  -44.5567  -57.9925 O   0  0  0  0  0  0  0  0  0  0  0  0
  -12.7477  -44.9501  -60.3471 C   0  0  0  0  0  0  0  0  0  0  0  0
  -12.2126  -44.7719  -61.6095 C   0  0  0  0  0  0  0  0  0  0  0  0
  -11.0348  -44.0602  -61.7789 C   0  0  0  0  0  0  0  0  0  0  0  0
  1  2  2  0
  2  3  1  0
  3  4  1  0
  4  5  1  6
  5  6  1  0
  6  7  2  0
  7  8  1  0
  8  9  1  0
  8 10  2  0
 10 11  1  0
 11 12  1  0
 12 13  2  0
 13 14  1  0
 14 15  1  0
 14 16  2  0
 16 17  1  0
 16 18  1  0
 18 19  1  0
 18 20  2  0
 10 21  1  0
 21 22  1  0
 21 23  2  0
  4 24  1  0
 24 25  2  0
 24 26  1  0
  2 27  1  0
 27 28  2  0
 28 29  1  0
 29 30  2  0
 30 31  1  0
 31 32  2  0
 31 33  1  0
 33 34  2  0
 33 35  1  0
 35 36  1  0
 36 37  1  0
 37 38  2  0
 38 39  1  0
 39 40  2  0
 40 41  1  0
 40 42  1  0
 42 43  2  0
 43 44  1  0
 44 45  1  0
 45 46  2  0
 46 47  1  0
 47 48  1  0
 47 49  2  0
 49 50  1  0
 50 51  2  0
 23  6  1  0
 32 27  1  0
 51 36  1  0
 20 12  1  0
 36 30  1  0
 43 37  1  0
 51 45  1  0
M  CHG  1  26  -1
M  END
>  <shape_align_shape_tanimoto>  (3) 
0.37022159266287696

>  <shape_align_color_tanimoto>  (3) 
0.041946876235127828

>  <metric>  (3) 
combo

>  <metric_score>  (3) 
0.206

>  <template_pid>  (3) 
2XN7

>  <template_shape_score>  (3) 
0.370

>  <template_color_score>  (3) 
0.042

>  <template_combo_score>  (3) 
0.206

$$$$
