2Y2I_shape_pose
     RDKit          3D

 16 16  0  0  0  0  0  0  0  0999 V2000
  102.5402   33.7477   29.4755 O   0  0  0  0  0  0  0  0  0  0  0  0
  103.7766   33.6748   29.7979 C   0  0  0  0  0  0  0  0  0  0  0  0
  104.2542   34.2960   31.0083 N   0  0  0  0  0  0  0  0  0  0  0  0
  103.2943   35.0059   31.8511 C   0  0  0  0  0  0  0  0  0  0  0  0
  102.1415   34.0291   32.3581 B   0  0  0  0  0  0  0  0  0  0  0  0
  100.7761   34.1400   31.8384 O   0  0  0  0  0  0  0  0  0  0  0  0
  102.2982   33.4182   33.6830 O   0  0  0  0  0  0  0  0  0  0  0  0
  104.6456   32.9505   28.8974 C   0  0  0  0  0  0  0  0  0  0  0  0
  105.7144   33.6625   28.3462 C   0  0  0  0  0  0  0  0  0  0  0  0
  106.5524   32.9914   27.4837 C   0  0  0  0  0  0  0  0  0  0  0  0
  106.3805   31.6698   27.1500 C   0  0  0  0  0  0  0  0  0  0  0  0
  105.3251   30.9727   27.6968 C   0  0  0  0  0  0  0  0  0  0  0  0
  104.4576   31.6240   28.5743 C   0  0  0  0  0  0  0  0  0  0  0  0
  103.3650   30.9187   29.1454 N   0  0  0  0  0  0  0  0  0  0  0  0
  102.9081   31.1625   30.2809 O   0  0  0  0  0  0  0  0  0  0  0  0
  102.7946   29.9150   28.3827 O   0  0  0  0  0  0  0  0  0  0  0  0
  1  2  2  0
  2  3  1  0
  3  4  1  0
  4  5  1  0
  5  6  1  0
  5  7  1  0
  2  8  1  0
  8  9  2  0
  9 10  1  0
 10 11  2  0
 11 12  1  0
 12 13  2  0
 13 14  1  0
 14 15  2  0
 14 16  1  0
 13  8  1  0
M  CHG  2  14   1  16  -1
M  END
>  <shape_align_shape_tanimoto>  (1) 
0.57713274987160434

>  <shape_align_color_tanimoto>  (1) 
0.031140879409380609

>  <metric>  (1) 
shape

>  <metric_score>  (1) 
0.577

>  <template_pid>  (1) 
2Y2I

>  <template_shape_score>  (1) 
0.577

>  <template_color_score>  (1) 
0.031

>  <template_combo_score>  (1) 
0.304

$$$$
2Y2I_color_pose
     RDKit          3D

 16 16  0  0  0  0  0  0  0  0999 V2000
  102.1960   34.8176   29.6175 O   0  0  0  0  0  0  0  0  0  0  0  0
  102.8288   34.0362   30.3564 C   0  0  0  0  0  0  0  0  0  0  0  0
  103.6579   32.9954   29.8421 N   0  0  0  0  0  0  0  0  0  0  0  0
  103.7761   32.8296   28.4121 C   0  0  0  0  0  0  0  0  0  0  0  0
  104.7588   31.5996   28.1759 B   0  0  0  0  0  0  0  0  0  0  0  0
  106.1782   31.8542   28.5083 O   0  0  0  0  0  0  0  0  0  0  0  0
  104.2735   30.2851   28.5795 O   0  0  0  0  0  0  0  0  0  0  0  0
  102.7180   34.1919   31.8194 C   0  0  0  0  0  0  0  0  0  0  0  0
  103.6366   35.0373   32.4214 C   0  0  0  0  0  0  0  0  0  0  0  0
  103.5602   35.2013   33.7692 C   0  0  0  0  0  0  0  0  0  0  0  0
  102.6045   34.5551   34.5343 C   0  0  0  0  0  0  0  0  0  0  0  0
  101.6883   33.7074   33.9067 C   0  0  0  0  0  0  0  0  0  0  0  0
  101.7535   33.5328   32.5499 C   0  0  0  0  0  0  0  0  0  0  0  0
  100.8549   32.6824   31.8264 N   0  0  0  0  0  0  0  0  0  0  0  0
  101.2047   32.0707   30.7904 O   0  0  0  0  0  0  0  0  0  0  0  0
   99.5527   32.5410   32.3016 O   0  0  0  0  0  0  0  0  0  0  0  0
  1  2  2  0
  2  3  1  0
  3  4  1  0
  4  5  1  0
  5  6  1  0
  5  7  1  0
  2  8  1  0
  8  9  2  0
  9 10  1  0
 10 11  2  0
 11 12  1  0
 12 13  2  0
 13 14  1  0
 14 15  2  0
 14 16  1  0
 13  8  1  0
M  CHG  2  14   1  16  -1
M  END
>  <shape_align_shape_tanimoto>  (2) 
0.51133694338961933

>  <shape_align_color_tanimoto>  (2) 
0.11781853376774763

>  <metric>  (2) 
color

>  <metric_score>  (2) 
0.118

>  <template_pid>  (2) 
2Y2I

>  <template_shape_score>  (2) 
0.511

>  <template_color_score>  (2) 
0.118

>  <template_combo_score>  (2) 
0.315

$$$$
2Y2I_combo_pose
     RDKit          3D

 16 16  0  0  0  0  0  0  0  0999 V2000
  103.5780   35.1953   30.2949 O   0  0  0  0  0  0  0  0  0  0  0  0
  103.5193   34.1092   30.9720 C   0  0  0  0  0  0  0  0  0  0  0  0
  104.0580   32.9714   30.3603 N   0  0  0  0  0  0  0  0  0  0  0  0
  104.6183   33.1411   29.0308 C   0  0  0  0  0  0  0  0  0  0  0  0
  105.0445   31.7148   28.4040 B   0  0  0  0  0  0  0  0  0  0  0  0
  105.7496   31.7993   27.0946 O   0  0  0  0  0  0  0  0  0  0  0  0
  103.9462   30.7236   28.4067 O   0  0  0  0  0  0  0  0  0  0  0  0
  102.9082   34.1862   32.2798 C   0  0  0  0  0  0  0  0  0  0  0  0
  103.6028   34.9772   33.2167 C   0  0  0  0  0  0  0  0  0  0  0  0
  103.1011   35.1362   34.5131 C   0  0  0  0  0  0  0  0  0  0  0  0
  101.9277   34.5051   34.8359 C   0  0  0  0  0  0  0  0  0  0  0  0
  101.2501   33.7323   33.9206 C   0  0  0  0  0  0  0  0  0  0  0  0
  101.7327   33.5588   32.6188 C   0  0  0  0  0  0  0  0  0  0  0  0
  100.9615   32.7694   31.7400 N   0  0  0  0  0  0  0  0  0  0  0  0
   99.7082   32.7199   31.9290 O   0  0  0  0  0  0  0  0  0  0  0  0
  101.4224   32.0450   30.6784 O   0  0  0  0  0  0  0  0  0  0  0  0
  1  2  2  0
  2  3  1  0
  3  4  1  0
  4  5  1  0
  5  6  1  0
  5  7  1  0
  2  8  1  0
  8  9  2  0
  9 10  1  0
 10 11  2  0
 11 12  1  0
 12 13  2  0
 13 14  1  0
 14 15  2  0
 14 16  1  0
 13  8  1  0
M  CHG  2  14   1  16  -1
M  END
>  <shape_align_shape_tanimoto>  (3) 
0.55188153252254712

>  <shape_align_color_tanimoto>  (3) 
0.10381961765806724

>  <metric>  (3) 
combo

>  <metric_score>  (3) 
0.328

>  <template_pid>  (3) 
2Y2I

>  <template_shape_score>  (3) 
0.552

>  <template_color_score>  (3) 
0.104

>  <template_combo_score>  (3) 
0.328

$$$$
