4MFE_shape_pose
     RDKit          3D

  7  6  0  0  0  0  0  0  0  0999 V2000
   32.6006   21.7187   25.4547 O   0  0  0  0  0  0  0  0  0  0  0  0
   32.8611   21.6511   26.6885 C   0  0  0  0  0  0  0  0  0  0  0  0
   32.4769   20.5528   27.4437 O   0  0  0  0  0  0  0  0  0  0  0  0
   33.5804   22.7813   27.2645 C   0  0  0  0  0  0  0  0  0  0  0  0
   33.8917   23.7346   26.5163 O   0  0  0  0  0  0  0  0  0  0  0  0
   33.9013   22.7296   28.7167 C   0  0  0  0  0  0  0  0  0  0  0  0
   34.5776   23.8397   29.1559 O   0  0  0  0  0  0  0  0  0  0  0  0
  1  2  2  0
  2  3  1  0
  2  4  1  0
  4  5  2  0
  4  6  1  0
  6  7  1  0
M  CHG  1   3  -1
M  END
>  <shape_align_shape_tanimoto>  (1) 
0.33184450105939756

>  <shape_align_color_tanimoto>  (1) 
0.08040317487070775

>  <metric>  (1) 
shape

>  <metric_score>  (1) 
0.332

>  <template_pid>  (1) 
4MFE

>  <template_shape_score>  (1) 
0.332

>  <template_color_score>  (1) 
0.080

>  <template_combo_score>  (1) 
0.206

$$$$
4MFE_color_pose
     RDKit          3D

  7  6  0  0  0  0  0  0  0  0999 V2000
   33.4877   22.8674   27.8145 O   0  0  0  0  0  0  0  0  0  0  0  0
   34.4855   23.1755   28.4897 C   0  0  0  0  0  0  0  0  0  0  0  0
   35.7921   22.8325   28.1730 O   0  0  0  0  0  0  0  0  0  0  0  0
   34.2809   23.9597   29.7146 C   0  0  0  0  0  0  0  0  0  0  0  0
   33.1061   24.2888   30.0327 O   0  0  0  0  0  0  0  0  0  0  0  0
   35.4004   24.3794   30.5915 C   0  0  0  0  0  0  0  0  0  0  0  0
   36.5938   23.9118   30.0541 O   0  0  0  0  0  0  0  0  0  0  0  0
  1  2  2  0
  2  3  1  0
  2  4  1  0
  4  5  2  0
  4  6  1  0
  6  7  1  0
M  CHG  1   3  -1
M  END
>  <shape_align_shape_tanimoto>  (2) 
0.27420064770177055

>  <shape_align_color_tanimoto>  (2) 
0.14478033470767201

>  <metric>  (2) 
color

>  <metric_score>  (2) 
0.145

>  <template_pid>  (2) 
4MFE

>  <template_shape_score>  (2) 
0.274

>  <template_color_score>  (2) 
0.145

>  <template_combo_score>  (2) 
0.209

$$$$
4MFE_combo_pose
     RDKit          3D

  7  6  0  0  0  0  0  0  0  0999 V2000
   33.9261   24.1122   25.9834 O   0  0  0  0  0  0  0  0  0  0  0  0
   33.4243   22.9857   26.2173 C   0  0  0  0  0  0  0  0  0  0  0  0
   32.8000   22.2835   25.2044 O   0  0  0  0  0  0  0  0  0  0  0  0
   33.5273   22.4544   27.5904 C   0  0  0  0  0  0  0  0  0  0  0  0
   34.1212   23.1948   28.4183 O   0  0  0  0  0  0  0  0  0  0  0  0
   32.9568   21.1295   27.9379 C   0  0  0  0  0  0  0  0  0  0  0  0
   32.3722   20.5683   26.8105 O   0  0  0  0  0  0  0  0  0  0  0  0
  1  2  2  0
  2  3  1  0
  2  4  1  0
  4  5  2  0
  4  6  1  0
  6  7  1  0
M  CHG  1   3  -1
M  END
>  <shape_align_shape_tanimoto>  (3) 
0.32222256195567084

>  <shape_align_color_tanimoto>  (3) 
0.11216395371809651

>  <metric>  (3) 
combo

>  <metric_score>  (3) 
0.217

>  <template_pid>  (3) 
4MFE

>  <template_shape_score>  (3) 
0.322

>  <template_color_score>  (3) 
0.112

>  <template_combo_score>  (3) 
0.217

$$$$
