5DUC_shape_pose
     RDKit          3D

 34 38  0  0  0  0  0  0  0  0999 V2000
   33.0166   46.8066    4.8294 C   0  0  0  0  0  0  0  0  0  0  0  0
   33.7451   45.9666    5.8666 C   0  0  0  0  0  0  0  0  0  0  0  0
   34.3634   46.8311    6.8922 C   0  0  0  0  0  0  0  0  0  0  0  0
   35.6285   47.3316    6.8010 C   0  0  0  0  0  0  0  0  0  0  0  0
   36.1495   48.1468    7.8144 C   0  0  0  0  0  0  0  0  0  0  0  0
   35.4383   48.4832    8.9316 C   0  0  0  0  0  0  0  0  0  0  0  0
   35.8840   49.3132   10.0521 C   0  0  1  0  0  0  0  0  0  0  0  0
   37.1805   49.9828    9.8002 C   0  0  0  0  0  0  0  0  0  0  0  0
   37.0969   51.4426    9.4240 C   0  0  1  0  0  0  0  0  0  0  0  0
   36.5335   51.6600    8.0646 C   0  0  0  0  0  0  0  0  0  0  0  0
   35.2538   51.1824    7.8950 F   0  0  0  0  0  0  0  0  0  0  0  0
   37.3460   51.1831    7.0547 F   0  0  0  0  0  0  0  0  0  0  0  0
   36.4494   53.0467    7.8775 F   0  0  0  0  0  0  0  0  0  0  0  0
   36.3052   52.1946   10.3949 N   0  0  0  0  0  0  0  0  0  0  0  0
   36.3860   53.3494   11.0003 N   0  0  0  0  0  0  0  0  0  0  0  0
   35.3183   53.5241   11.8251 C   0  0  0  0  0  0  0  0  0  0  0  0
   34.5187   52.4014   11.7260 C   0  0  0  0  0  0  0  0  0  0  0  0
   33.2523   52.1281   12.4271 C   0  0  0  0  0  0  0  0  0  0  0  0
   32.6953   51.0313   12.1732 O   0  0  0  0  0  0  0  0  0  0  0  0
   32.7337   53.0809   13.3273 N   0  0  0  0  0  0  0  0  0  0  0  0
   31.4988   52.9207   14.0698 C   0  0  0  0  0  0  0  0  0  0  0  0
   30.3302   53.1667   13.1878 C   0  0  0  0  0  0  0  0  0  0  0  0
   29.8495   54.4696   13.0631 C   0  0  0  0  0  0  0  0  0  0  0  0
   28.7606   54.7359   12.2547 C   0  0  0  0  0  0  0  0  0  0  0  0
   28.1054   53.7405   11.5421 C   0  0  0  0  0  0  0  0  0  0  0  0
   28.5829   52.4531   11.6675 C   0  0  0  0  0  0  0  0  0  0  0  0
   29.6795   52.1848   12.4817 C   0  0  0  0  0  0  0  0  0  0  0  0
   27.7655   51.6634   10.8670 O   0  0  0  0  0  0  0  0  0  0  0  0
   26.9063   52.4944   10.1038 C   0  0  0  0  0  0  0  0  0  0  0  0
   27.0160   53.7583   10.6847 O   0  0  0  0  0  0  0  0  0  0  0  0
   35.1636   51.5803   10.8188 C   0  0  0  0  0  0  0  0  0  0  0  0
   34.8133   50.2952   10.3236 N   0  0  0  0  0  0  0  0  0  0  0  0
   34.1399   47.9610    9.0110 C   0  0  0  0  0  0  0  0  0  0  0  0
   33.6237   47.1540    8.0079 C   0  0  0  0  0  0  0  0  0  0  0  0
  1  2  1  0
  2  3  1  0
  3  4  2  0
  4  5  1  0
  5  6  2  0
  7  6  1  6
  7  8  1  0
  8  9  1  0
  9 10  1  6
 10 11  1  0
 10 12  1  0
 10 13  1  0
  9 14  1  0
 14 15  1  0
 15 16  2  0
 16 17  1  0
 17 18  1  0
 18 19  2  0
 18 20  1  0
 20 21  1  0
 21 22  1  0
 22 23  2  0
 23 24  1  0
 24 25  2  0
 25 26  1  0
 26 27  2  0
 26 28  1  0
 28 29  1  0
 29 30  1  0
 17 31  2  0
 31 32  1  0
  6 33  1  0
 33 34  2  0
 34  3  1  0
 32  7  1  0
 31 14  1  0
 27 22  1  0
 30 25  1  0
M  END
>  <shape_align_shape_tanimoto>  (1) 
0.46807547136611022

>  <shape_align_color_tanimoto>  (1) 
0.065156279461727584

>  <metric>  (1) 
shape

>  <metric_score>  (1) 
0.468

>  <template_pid>  (1) 
5DUC

>  <template_shape_score>  (1) 
0.468

>  <template_color_score>  (1) 
0.065

>  <template_combo_score>  (1) 
0.267

$$$$
5DUC_color_pose
     RDKit          3D

 34 38  0  0  0  0  0  0  0  0999 V2000
   35.4431   58.2215    6.9526 C   0  0  0  0  0  0  0  0  0  0  0  0
   35.8260   57.0821    6.0044 C   0  0  0  0  0  0  0  0  0  0  0  0
   36.0762   55.8224    6.7838 C   0  0  0  0  0  0  0  0  0  0  0  0
   37.3465   55.5409    7.2454 C   0  0  0  0  0  0  0  0  0  0  0  0
   37.5996   54.3871    7.9688 C   0  0  0  0  0  0  0  0  0  0  0  0
   36.5597   53.4888    8.2405 C   0  0  0  0  0  0  0  0  0  0  0  0
   36.8262   52.2314    9.0299 C   0  0  1  0  0  0  0  0  0  0  0  0
   36.6956   52.4504   10.4941 C   0  0  0  0  0  0  0  0  0  0  0  0
   35.7236   51.6110   11.2313 C   0  0  1  0  0  0  0  0  0  0  0  0
   34.4379   52.3282   11.6059 C   0  0  0  0  0  0  0  0  0  0  0  0
   34.7046   53.4115   12.4114 F   0  0  0  0  0  0  0  0  0  0  0  0
   33.7011   52.6228   10.4933 F   0  0  0  0  0  0  0  0  0  0  0  0
   33.6682   51.4721   12.3859 F   0  0  0  0  0  0  0  0  0  0  0  0
   35.4626   50.3345   10.6350 N   0  0  0  0  0  0  0  0  0  0  0  0
   34.9935   49.2260   11.2253 N   0  0  0  0  0  0  0  0  0  0  0  0
   34.8955   48.2426   10.3193 C   0  0  0  0  0  0  0  0  0  0  0  0
   35.3126   48.7169    9.0930 C   0  0  0  0  0  0  0  0  0  0  0  0
   35.3776   47.9944    7.8078 C   0  0  0  0  0  0  0  0  0  0  0  0
   35.7602   48.6017    6.8039 O   0  0  0  0  0  0  0  0  0  0  0  0
   34.9868   46.6301    7.8346 N   0  0  0  0  0  0  0  0  0  0  0  0
   34.9806   45.7566    6.6850 C   0  0  0  0  0  0  0  0  0  0  0  0
   33.7799   46.0653    5.8658 C   0  0  0  0  0  0  0  0  0  0  0  0
   33.7771   46.9671    4.8262 C   0  0  0  0  0  0  0  0  0  0  0  0
   32.5982   47.1629    4.1464 C   0  0  0  0  0  0  0  0  0  0  0  0
   31.4209   46.5073    4.4475 C   0  0  0  0  0  0  0  0  0  0  0  0
   31.4535   45.5975    5.5081 C   0  0  0  0  0  0  0  0  0  0  0  0
   32.6185   45.3777    6.2104 C   0  0  0  0  0  0  0  0  0  0  0  0
   30.1587   45.0651    5.6232 O   0  0  0  0  0  0  0  0  0  0  0  0
   29.2639   45.8894    4.8772 C   0  0  0  0  0  0  0  0  0  0  0  0
   30.1296   46.5115    3.9445 O   0  0  0  0  0  0  0  0  0  0  0  0
   35.6621   50.0419    9.3351 C   0  0  0  0  0  0  0  0  0  0  0  0
   36.1630   51.0804    8.5030 N   0  0  0  0  0  0  0  0  0  0  0  0
   35.2856   53.7791    7.7727 C   0  0  0  0  0  0  0  0  0  0  0  0
   35.0466   54.9327    7.0525 C   0  0  0  0  0  0  0  0  0  0  0  0
  1  2  1  0
  2  3  1  0
  3  4  2  0
  4  5  1  0
  5  6  2  0
  7  6  1  6
  7  8  1  0
  8  9  1  0
  9 10  1  6
 10 11  1  0
 10 12  1  0
 10 13  1  0
  9 14  1  0
 14 15  1  0
 15 16  2  0
 16 17  1  0
 17 18  1  0
 18 19  2  0
 18 20  1  0
 20 21  1  0
 21 22  1  0
 22 23  2  0
 23 24  1  0
 24 25  2  0
 25 26  1  0
 26 27  2  0
 26 28  1  0
 28 29  1  0
 29 30  1  0
 17 31  2  0
 31 32  1  0
  6 33  1  0
 33 34  2  0
 34  3  1  0
 32  7  1  0
 31 14  1  0
 27 22  1  0
 30 25  1  0
M  END
>  <shape_align_shape_tanimoto>  (2) 
0.40048463356364139

>  <shape_align_color_tanimoto>  (2) 
0.11633129385320581

>  <metric>  (2) 
color

>  <metric_score>  (2) 
0.116

>  <template_pid>  (2) 
5DUC

>  <template_shape_score>  (2) 
0.400

>  <template_color_score>  (2) 
0.116

>  <template_combo_score>  (2) 
0.258

$$$$
5DUC_combo_pose
     RDKit          3D

 34 38  0  0  0  0  0  0  0  0999 V2000
   32.6868   46.4577    5.3414 C   0  0  0  0  0  0  0  0  0  0  0  0
   33.2041   45.9236    6.6407 C   0  0  0  0  0  0  0  0  0  0  0  0
   34.1851   46.8370    7.3055 C   0  0  0  0  0  0  0  0  0  0  0  0
   33.6236   47.8072    8.1361 C   0  0  0  0  0  0  0  0  0  0  0  0
   34.4728   48.6737    8.7882 C   0  0  0  0  0  0  0  0  0  0  0  0
   35.8443   48.5985    8.6364 C   0  0  0  0  0  0  0  0  0  0  0  0
   36.6569   49.5859    9.3824 C   0  0  1  0  0  0  0  0  0  0  0  0
   36.8892   50.8193    8.6189 C   0  0  0  0  0  0  0  0  0  0  0  0
   36.8146   52.0984    9.3917 C   0  0  1  0  0  0  0  0  0  0  0  0
   36.7593   53.2610    8.4256 C   0  0  0  0  0  0  0  0  0  0  0  0
   35.6553   53.1741    7.6017 F   0  0  0  0  0  0  0  0  0  0  0  0
   37.9153   53.3228    7.6752 F   0  0  0  0  0  0  0  0  0  0  0  0
   36.5825   54.4251    9.1673 F   0  0  0  0  0  0  0  0  0  0  0  0
   35.6747   52.1466   10.2816 N   0  0  0  0  0  0  0  0  0  0  0  0
   34.8608   53.1125   10.6652 N   0  0  0  0  0  0  0  0  0  0  0  0
   33.9531   52.6320   11.5022 C   0  0  0  0  0  0  0  0  0  0  0  0
   34.2106   51.2749   11.6569 C   0  0  0  0  0  0  0  0  0  0  0  0
   33.4152   50.3679   12.4845 C   0  0  0  0  0  0  0  0  0  0  0  0
   33.7489   49.1441   12.4425 O   0  0  0  0  0  0  0  0  0  0  0  0
   32.3520   50.8569   13.2654 N   0  0  0  0  0  0  0  0  0  0  0  0
   31.4972   50.0462   14.1113 C   0  0  0  0  0  0  0  0  0  0  0  0
   30.1982   50.7983   14.3211 C   0  0  0  0  0  0  0  0  0  0  0  0
   29.1417   50.6657   13.4559 C   0  0  0  0  0  0  0  0  0  0  0  0
   27.9563   51.3930   13.6614 C   0  0  0  0  0  0  0  0  0  0  0  0
   27.9315   52.2221   14.7576 C   0  0  0  0  0  0  0  0  0  0  0  0
   29.0188   52.3450   15.6319 C   0  0  0  0  0  0  0  0  0  0  0  0
   30.1886   51.6258   15.4272 C   0  0  0  0  0  0  0  0  0  0  0  0
   28.6337   53.2754   16.6321 O   0  0  0  0  0  0  0  0  0  0  0  0
   27.6507   54.1264   15.9906 C   0  0  0  0  0  0  0  0  0  0  0  0
   26.9386   53.0961   15.2780 O   0  0  0  0  0  0  0  0  0  0  0  0
   35.3140   50.9897   10.8688 C   0  0  0  0  0  0  0  0  0  0  0  0
   36.0118   49.7701   10.6577 N   0  0  0  0  0  0  0  0  0  0  0  0
   36.3608   47.6323    7.8125 C   0  0  0  0  0  0  0  0  0  0  0  0
   35.5475   46.7241    7.1233 C   0  0  0  0  0  0  0  0  0  0  0  0
  1  2  1  0
  2  3  1  0
  3  4  2  0
  4  5  1  0
  5  6  2  0
  7  6  1  6
  7  8  1  0
  8  9  1  0
  9 10  1  6
 10 11  1  0
 10 12  1  0
 10 13  1  0
  9 14  1  0
 14 15  1  0
 15 16  2  0
 16 17  1  0
 17 18  1  0
 18 19  2  0
 18 20  1  0
 20 21  1  0
 21 22  1  0
 22 23  2  0
 23 24  1  0
 24 25  2  0
 25 26  1  0
 26 27  2  0
 26 28  1  0
 28 29  1  0
 29 30  1  0
 17 31  2  0
 31 32  1  0
  6 33  1  0
 33 34  2  0
 34  3  1  0
 32  7  1  0
 31 14  1  0
 27 22  1  0
 30 25  1  0
M  END
>  <shape_align_shape_tanimoto>  (3) 
0.46412028158129448

>  <shape_align_color_tanimoto>  (3) 
0.11065590832687579

>  <metric>  (3) 
combo

>  <metric_score>  (3) 
0.287

>  <template_pid>  (3) 
5DUC

>  <template_shape_score>  (3) 
0.464

>  <template_color_score>  (3) 
0.111

>  <template_combo_score>  (3) 
0.287

$$$$
