1AU2_shape_pose
     RDKit          3D

 38 40  0  0  0  0  0  0  0  0999 V2000
    4.0850  -24.1445    7.6365 C   0  0  0  0  0  0  0  0  0  0  0  0
    2.7222  -24.3057    8.3396 C   0  0  0  0  0  0  0  0  0  0  0  0
    2.3295  -23.0194    8.9903 C   0  0  0  0  0  0  0  0  0  0  0  0
    2.9374  -25.4131    9.3413 C   0  0  0  0  0  0  0  0  0  0  0  0
    1.7606  -25.7656   10.1759 C   0  0  2  0  0  0  0  0  0  0  0  0
    2.1051  -26.8424   11.1000 N   0  0  0  0  0  0  0  0  0  0  0  0
    2.0026  -26.6204   12.4931 C   0  0  0  0  0  0  0  0  0  0  0  0
    1.6166  -25.4982   12.9113 O   0  0  0  0  0  0  0  0  0  0  0  0
    2.3226  -27.6305   13.4952 C   0  0  0  0  0  0  0  0  0  0  0  0
    2.1906  -27.2990   14.8263 C   0  0  0  0  0  0  0  0  0  0  0  0
    2.4863  -28.2376   15.8002 C   0  0  0  0  0  0  0  0  0  0  0  0
    2.9024  -29.4740   15.4746 N   0  0  0  0  0  0  0  0  0  0  0  0
    3.0413  -29.8278   14.1791 C   0  0  0  0  0  0  0  0  0  0  0  0
    2.7503  -28.9021   13.1781 C   0  0  0  0  0  0  0  0  0  0  0  0
    0.5642  -26.1484    9.3569 C   0  0  0  0  0  0  0  0  0  0  0  0
    0.1350  -25.2990    8.5688 O   0  0  0  0  0  0  0  0  0  0  0  0
   -0.0180  -27.4279    9.5064 N   0  0  0  0  0  0  0  0  0  0  0  0
   -1.1050  -28.0171    8.8467 C   0  0  0  0  0  0  0  0  0  0  0  0
   -1.1223  -28.4339    7.4425 C   0  0  1  0  0  0  0  0  0  0  0  0
   -2.4806  -28.9374    7.2211 O   0  0  0  0  0  0  0  0  0  0  0  0
   -0.9261  -27.4638    6.3461 C   0  0  0  0  0  0  0  0  0  0  0  0
    0.3513  -26.8614    6.1905 N   0  0  0  0  0  0  0  0  0  0  0  0
    0.4206  -25.7556    4.8666 S   0  0  0  0  0  0  0  0  0  0  0  0
    0.1201  -26.4295    3.5627 O   0  0  0  0  0  0  0  0  0  0  0  0
    1.7881  -25.1377    4.8603 O   0  0  0  0  0  0  0  0  0  0  0  0
   -0.7330  -24.4867    5.2054 C   0  0  0  0  0  0  0  0  0  0  0  0
   -2.0488  -24.6425    4.7735 C   0  0  0  0  0  0  0  0  0  0  0  0
   -2.9894  -23.6413    5.0337 C   0  0  0  0  0  0  0  0  0  0  0  0
   -2.6249  -22.4994    5.7154 C   0  0  0  0  0  0  0  0  0  0  0  0
   -3.5494  -21.4799    5.9899 O   0  0  0  0  0  0  0  0  0  0  0  0
   -4.2949  -21.4891    7.1635 C   0  0  0  0  0  0  0  0  0  0  0  0
   -4.0891  -22.5385    8.0490 C   0  0  0  0  0  0  0  0  0  0  0  0
   -4.7903  -22.6092    9.2243 C   0  0  0  0  0  0  0  0  0  0  0  0
   -5.7077  -21.6179    9.5158 C   0  0  0  0  0  0  0  0  0  0  0  0
   -5.9215  -20.5614    8.6348 C   0  0  0  0  0  0  0  0  0  0  0  0
   -5.1962  -20.5117    7.4460 C   0  0  0  0  0  0  0  0  0  0  0  0
   -1.3260  -22.3328    6.1481 C   0  0  0  0  0  0  0  0  0  0  0  0
   -0.4139  -23.3311    5.8817 C   0  0  0  0  0  0  0  0  0  0  0  0
  1  2  1  0
  2  3  1  0
  2  4  1  0
  5  4  1  6
  5  6  1  0
  6  7  1  0
  7  8  2  0
  7  9  1  0
  9 10  2  0
 10 11  1  0
 11 12  2  0
 12 13  1  0
 13 14  2  0
  5 15  1  0
 15 16  2  0
 15 17  1  0
 17 18  1  0
 18 19  1  0
 19 20  1  6
 19 21  1  0
 21 22  1  0
 22 23  1  0
 23 24  2  0
 23 25  2  0
 23 26  1  0
 26 27  2  0
 27 28  1  0
 28 29  2  0
 29 30  1  0
 30 31  1  0
 31 32  2  0
 32 33  1  0
 33 34  2  0
 34 35  1  0
 35 36  2  0
 29 37  1  0
 37 38  2  0
 14  9  1  0
 38 26  1  0
 36 31  1  0
M  END
>  <shape_align_shape_tanimoto>  (1) 
0.5708202695481297

>  <shape_align_color_tanimoto>  (1) 
0.00036986851960227904

>  <metric>  (1) 
shape

>  <metric_score>  (1) 
0.571

>  <template_pid>  (1) 
1AU2

>  <template_shape_score>  (1) 
0.571

>  <template_color_score>  (1) 
0.000

>  <template_combo_score>  (1) 
0.286

$$$$
1AU2_color_pose
     RDKit          3D

 38 40  0  0  0  0  0  0  0  0999 V2000
   -2.5110  -20.9053    4.2253 C   0  0  0  0  0  0  0  0  0  0  0  0
   -3.1772  -20.1989    5.3419 C   0  0  0  0  0  0  0  0  0  0  0  0
   -2.7022  -18.7272    5.3919 C   0  0  0  0  0  0  0  0  0  0  0  0
   -3.1282  -20.7427    6.6990 C   0  0  0  0  0  0  0  0  0  0  0  0
   -3.7000  -22.0379    7.0812 C   0  0  2  0  0  0  0  0  0  0  0  0
   -3.4641  -22.2688    8.5470 N   0  0  0  0  0  0  0  0  0  0  0  0
   -4.5402  -22.3918    9.4411 C   0  0  0  0  0  0  0  0  0  0  0  0
   -5.7234  -22.3094    9.0207 O   0  0  0  0  0  0  0  0  0  0  0  0
   -4.3365  -22.6161   10.8676 C   0  0  0  0  0  0  0  0  0  0  0  0
   -3.0923  -22.7269   11.4491 C   0  0  0  0  0  0  0  0  0  0  0  0
   -2.9397  -22.9397   12.8091 C   0  0  0  0  0  0  0  0  0  0  0  0
   -4.0036  -23.0463   13.6147 N   0  0  0  0  0  0  0  0  0  0  0  0
   -5.2458  -22.9450   13.0942 C   0  0  0  0  0  0  0  0  0  0  0  0
   -5.4227  -22.7320   11.7355 C   0  0  0  0  0  0  0  0  0  0  0  0
   -3.2977  -23.2132    6.3252 C   0  0  0  0  0  0  0  0  0  0  0  0
   -3.5042  -23.3788    5.0977 O   0  0  0  0  0  0  0  0  0  0  0  0
   -2.6203  -24.2665    6.9972 N   0  0  0  0  0  0  0  0  0  0  0  0
   -2.1509  -25.4803    6.4105 C   0  0  0  0  0  0  0  0  0  0  0  0
   -1.1238  -25.3667    5.3449 C   0  0  1  0  0  0  0  0  0  0  0  0
   -1.4847  -24.6584    4.2305 O   0  0  0  0  0  0  0  0  0  0  0  0
    0.2300  -24.9218    5.8790 C   0  0  0  0  0  0  0  0  0  0  0  0
    0.2716  -23.5456    6.2520 N   0  0  0  0  0  0  0  0  0  0  0  0
    1.8463  -23.0893    6.8563 S   0  0  0  0  0  0  0  0  0  0  0  0
    1.8094  -21.5995    7.1265 O   0  0  0  0  0  0  0  0  0  0  0  0
    2.8301  -23.2885    5.7402 O   0  0  0  0  0  0  0  0  0  0  0  0
    2.2635  -23.9957    8.2910 C   0  0  0  0  0  0  0  0  0  0  0  0
    1.9006  -23.4781    9.5203 C   0  0  0  0  0  0  0  0  0  0  0  0
    2.2460  -24.2184   10.6346 C   0  0  0  0  0  0  0  0  0  0  0  0
    2.9216  -25.4180   10.5212 C   0  0  0  0  0  0  0  0  0  0  0  0
    3.2443  -26.1221   11.6754 O   0  0  0  0  0  0  0  0  0  0  0  0
    2.4140  -27.0754   12.2518 C   0  0  0  0  0  0  0  0  0  0  0  0
    2.7932  -27.7345   13.3933 C   0  0  0  0  0  0  0  0  0  0  0  0
    1.9472  -28.6778   13.9444 C   0  0  0  0  0  0  0  0  0  0  0  0
    0.7317  -28.9671   13.3682 C   0  0  0  0  0  0  0  0  0  0  0  0
    0.3551  -28.3024   12.2215 C   0  0  0  0  0  0  0  0  0  0  0  0
    1.1956  -27.3588   11.6657 C   0  0  0  0  0  0  0  0  0  0  0  0
    3.2793  -25.9255    9.2847 C   0  0  0  0  0  0  0  0  0  0  0  0
    2.9385  -25.1917    8.1549 C   0  0  0  0  0  0  0  0  0  0  0  0
  1  2  1  0
  2  3  1  0
  2  4  1  0
  5  4  1  6
  5  6  1  0
  6  7  1  0
  7  8  2  0
  7  9  1  0
  9 10  2  0
 10 11  1  0
 11 12  2  0
 12 13  1  0
 13 14  2  0
  5 15  1  0
 15 16  2  0
 15 17  1  0
 17 18  1  0
 18 19  1  0
 19 20  1  6
 19 21  1  0
 21 22  1  0
 22 23  1  0
 23 24  2  0
 23 25  2  0
 23 26  1  0
 26 27  2  0
 27 28  1  0
 28 29  2  0
 29 30  1  0
 30 31  1  0
 31 32  2  0
 32 33  1  0
 33 34  2  0
 34 35  1  0
 35 36  2  0
 29 37  1  0
 37 38  2  0
 14  9  1  0
 38 26  1  0
 36 31  1  0
M  END
>  <shape_align_shape_tanimoto>  (2) 
0.39802070872128137

>  <shape_align_color_tanimoto>  (2) 
0.055154375151209613

>  <metric>  (2) 
color

>  <metric_score>  (2) 
0.055

>  <template_pid>  (2) 
1AU2

>  <template_shape_score>  (2) 
0.398

>  <template_color_score>  (2) 
0.055

>  <template_combo_score>  (2) 
0.227

$$$$
1AU2_combo_pose
     RDKit          3D

 38 40  0  0  0  0  0  0  0  0999 V2000
    4.0850  -24.1445    7.6365 C   0  0  0  0  0  0  0  0  0  0  0  0
    2.7222  -24.3057    8.3396 C   0  0  0  0  0  0  0  0  0  0  0  0
    2.3295  -23.0194    8.9903 C   0  0  0  0  0  0  0  0  0  0  0  0
    2.9374  -25.4131    9.3413 C   0  0  0  0  0  0  0  0  0  0  0  0
    1.7606  -25.7656   10.1759 C   0  0  2  0  0  0  0  0  0  0  0  0
    2.1051  -26.8424   11.1000 N   0  0  0  0  0  0  0  0  0  0  0  0
    2.0026  -26.6204   12.4931 C   0  0  0  0  0  0  0  0  0  0  0  0
    1.6166  -25.4982   12.9113 O   0  0  0  0  0  0  0  0  0  0  0  0
    2.3226  -27.6305   13.4952 C   0  0  0  0  0  0  0  0  0  0  0  0
    2.1906  -27.2990   14.8263 C   0  0  0  0  0  0  0  0  0  0  0  0
    2.4863  -28.2376   15.8002 C   0  0  0  0  0  0  0  0  0  0  0  0
    2.9024  -29.4740   15.4746 N   0  0  0  0  0  0  0  0  0  0  0  0
    3.0413  -29.8278   14.1791 C   0  0  0  0  0  0  0  0  0  0  0  0
    2.7503  -28.9021   13.1781 C   0  0  0  0  0  0  0  0  0  0  0  0
    0.5642  -26.1484    9.3569 C   0  0  0  0  0  0  0  0  0  0  0  0
    0.1350  -25.2990    8.5688 O   0  0  0  0  0  0  0  0  0  0  0  0
   -0.0180  -27.4279    9.5064 N   0  0  0  0  0  0  0  0  0  0  0  0
   -1.1050  -28.0171    8.8467 C   0  0  0  0  0  0  0  0  0  0  0  0
   -1.1223  -28.4339    7.4425 C   0  0  1  0  0  0  0  0  0  0  0  0
   -2.4806  -28.9374    7.2211 O   0  0  0  0  0  0  0  0  0  0  0  0
   -0.9261  -27.4638    6.3461 C   0  0  0  0  0  0  0  0  0  0  0  0
    0.3513  -26.8614    6.1905 N   0  0  0  0  0  0  0  0  0  0  0  0
    0.4206  -25.7556    4.8666 S   0  0  0  0  0  0  0  0  0  0  0  0
    0.1201  -26.4295    3.5627 O   0  0  0  0  0  0  0  0  0  0  0  0
    1.7881  -25.1377    4.8603 O   0  0  0  0  0  0  0  0  0  0  0  0
   -0.7330  -24.4867    5.2054 C   0  0  0  0  0  0  0  0  0  0  0  0
   -2.0488  -24.6425    4.7735 C   0  0  0  0  0  0  0  0  0  0  0  0
   -2.9894  -23.6413    5.0337 C   0  0  0  0  0  0  0  0  0  0  0  0
   -2.6249  -22.4994    5.7154 C   0  0  0  0  0  0  0  0  0  0  0  0
   -3.5494  -21.4799    5.9899 O   0  0  0  0  0  0  0  0  0  0  0  0
   -4.2949  -21.4891    7.1635 C   0  0  0  0  0  0  0  0  0  0  0  0
   -4.0891  -22.5385    8.0490 C   0  0  0  0  0  0  0  0  0  0  0  0
   -4.7903  -22.6092    9.2243 C   0  0  0  0  0  0  0  0  0  0  0  0
   -5.7077  -21.6179    9.5158 C   0  0  0  0  0  0  0  0  0  0  0  0
   -5.9215  -20.5614    8.6348 C   0  0  0  0  0  0  0  0  0  0  0  0
   -5.1962  -20.5117    7.4460 C   0  0  0  0  0  0  0  0  0  0  0  0
   -1.3260  -22.3328    6.1481 C   0  0  0  0  0  0  0  0  0  0  0  0
   -0.4139  -23.3311    5.8817 C   0  0  0  0  0  0  0  0  0  0  0  0
  1  2  1  0
  2  3  1  0
  2  4  1  0
  5  4  1  6
  5  6  1  0
  6  7  1  0
  7  8  2  0
  7  9  1  0
  9 10  2  0
 10 11  1  0
 11 12  2  0
 12 13  1  0
 13 14  2  0
  5 15  1  0
 15 16  2  0
 15 17  1  0
 17 18  1  0
 18 19  1  0
 19 20  1  6
 19 21  1  0
 21 22  1  0
 22 23  1  0
 23 24  2  0
 23 25  2  0
 23 26  1  0
 26 27  2  0
 27 28  1  0
 28 29  2  0
 29 30  1  0
 30 31  1  0
 31 32  2  0
 32 33  1  0
 33 34  2  0
 34 35  1  0
 35 36  2  0
 29 37  1  0
 37 38  2  0
 14  9  1  0
 38 26  1  0
 36 31  1  0
M  END
>  <shape_align_shape_tanimoto>  (3) 
0.5708202695481297

>  <shape_align_color_tanimoto>  (3) 
0.00036986851960227904

>  <metric>  (3) 
combo

>  <metric_score>  (3) 
0.286

>  <template_pid>  (3) 
1AU2

>  <template_shape_score>  (3) 
0.571

>  <template_color_score>  (3) 
0.000

>  <template_combo_score>  (3) 
0.286

$$$$
