4D89_shape_pose
     RDKit          3D

 40 42  0  0  0  0  0  0  0  0999 V2000
   24.1081   75.3238   16.3542 C   0  0  0  0  0  0  0  0  0  0  0  0
   23.3240   74.1411   16.9176 C   0  0  0  0  0  0  0  0  0  0  0  0
   24.1897   73.3544   17.6831 O   0  0  0  0  0  0  0  0  0  0  0  0
   25.2471   72.8709   16.9239 C   0  0  0  0  0  0  0  0  0  0  0  0
   26.2128   72.0150   17.7380 C   0  0  1  0  0  0  0  0  0  0  0  0
   26.7826   72.6919   18.7842 O   0  0  0  0  0  0  0  0  0  0  0  0
   28.0525   73.0088   19.1209 C   0  0  0  0  0  0  0  0  0  0  0  0
   28.2291   73.7282   20.3156 C   0  0  0  0  0  0  0  0  0  0  0  0
   29.4567   74.1152   20.7732 C   0  0  0  0  0  0  0  0  0  0  0  0
   29.7270   74.8899   21.9909 C   0  0  0  0  0  0  0  0  0  0  0  0
   30.0056   76.3241   21.7800 C   0  0  2  0  0  0  0  0  0  0  0  0
   30.2806   77.0303   23.1324 C   0  0  0  0  0  0  0  0  0  0  0  0
   30.3824   78.7534   22.7484 S   0  0  0  0  0  0  0  0  0  0  0  0
   31.6065   79.3088   23.4557 O   0  0  0  0  0  0  0  0  0  0  0  0
   29.1720   79.5252   23.1968 O   0  0  0  0  0  0  0  0  0  0  0  0
   30.6935   78.9264   21.0178 C   0  0  0  0  0  0  0  0  0  0  0  0
   29.7662   78.0943   20.1670 C   0  0  2  0  0  0  0  0  0  0  0  0
   29.0001   78.8726   19.2761 N   0  0  0  0  0  0  0  0  0  0  0  0
   27.7975   79.4534   19.7417 C   0  0  0  0  0  0  0  0  0  0  0  0
   26.8802   79.8969   18.6695 C   0  0  0  0  0  0  0  0  0  0  0  0
   25.9551   78.9742   18.2138 C   0  0  0  0  0  0  0  0  0  0  0  0
   25.0615   79.3160   17.2132 C   0  0  0  0  0  0  0  0  0  0  0  0
   25.0650   80.5765   16.6440 C   0  0  0  0  0  0  0  0  0  0  0  0
   26.0037   81.4838   17.1200 C   0  0  0  0  0  0  0  0  0  0  0  0
   25.9758   82.8368   16.4828 C   0  0  0  0  0  0  0  0  0  0  0  0
   26.8830   82.8796   15.2550 C   0  0  0  0  0  0  0  0  0  0  0  0
   24.5916   83.2149   16.0392 C   0  0  0  0  0  0  0  0  0  0  0  0
   26.5007   83.8533   17.4470 C   0  0  0  0  0  0  0  0  0  0  0  0
   26.9025   81.1621   18.1163 C   0  0  0  0  0  0  0  0  0  0  0  0
   28.9964   77.1749   21.0931 C   0  0  1  0  0  0  0  0  0  0  0  0
   28.0696   76.4231   20.4426 O   0  0  0  0  0  0  0  0  0  0  0  0
   30.5758   73.7666   20.0017 C   0  0  0  0  0  0  0  0  0  0  0  0
   30.4647   73.0717   18.8399 C   0  0  0  0  0  0  0  0  0  0  0  0
   31.5705   72.7420   18.1019 F   0  0  0  0  0  0  0  0  0  0  0  0
   29.1927   72.7026   18.4171 C   0  0  0  0  0  0  0  0  0  0  0  0
   29.1110   71.9854   17.2084 N   0  0  0  0  0  0  0  0  0  0  0  0
   25.3382   70.9025   18.3362 C   0  0  0  0  0  0  0  0  0  0  0  0
   24.3535   71.4340   19.1277 F   0  0  0  0  0  0  0  0  0  0  0  0
   24.8380   70.1086   17.3234 F   0  0  0  0  0  0  0  0  0  0  0  0
   26.1811   70.1484   19.1549 F   0  0  0  0  0  0  0  0  0  0  0  0
  1  2  1  0
  2  3  1  0
  3  4  1  0
  5  4  1  1
  5  6  1  0
  6  7  1  0
  7  8  2  0
  8  9  1  0
  9 10  1  0
 11 10  1  1
 11 12  1  0
 12 13  1  0
 13 14  2  0
 13 15  2  0
 13 16  1  0
 16 17  1  0
 17 18  1  1
 18 19  1  0
 19 20  1  0
 20 21  2  0
 21 22  1  0
 22 23  2  0
 23 24  1  0
 24 25  1  0
 25 26  1  0
 25 27  1  0
 25 28  1  0
 24 29  2  0
 17 30  1  0
 30 31  1  6
  9 32  2  0
 32 33  1  0
 33 34  1  0
 33 35  2  0
 35 36  1  0
  5 37  1  0
 37 38  1  0
 37 39  1  0
 37 40  1  0
 35  7  1  0
 30 11  1  0
 29 20  1  0
M  CHG  1  18   1
M  END
>  <shape_align_shape_tanimoto>  (1) 
0.58971735018200577

>  <shape_align_color_tanimoto>  (1) 
0.0076549399668192691

>  <metric>  (1) 
shape

>  <metric_score>  (1) 
0.590

>  <template_pid>  (1) 
4D89

>  <template_shape_score>  (1) 
0.590

>  <template_color_score>  (1) 
0.008

>  <template_combo_score>  (1) 
0.299

$$$$
4D89_color_pose
     RDKit          3D

 40 42  0  0  0  0  0  0  0  0999 V2000
   26.5417   82.8308   15.1070 C   0  0  0  0  0  0  0  0  0  0  0  0
   27.0206   82.4590   16.4720 C   0  0  0  0  0  0  0  0  0  0  0  0
   26.7612   81.1106   16.7917 O   0  0  0  0  0  0  0  0  0  0  0  0
   27.2670   80.9437   18.0863 C   0  0  0  0  0  0  0  0  0  0  0  0
   27.0639   79.5286   18.5922 C   0  0  1  0  0  0  0  0  0  0  0  0
   27.5874   79.4279   19.8866 O   0  0  0  0  0  0  0  0  0  0  0  0
   28.5029   78.5044   20.3223 C   0  0  0  0  0  0  0  0  0  0  0  0
   29.0600   77.5093   19.5544 C   0  0  0  0  0  0  0  0  0  0  0  0
   29.9770   76.6173   20.0711 C   0  0  0  0  0  0  0  0  0  0  0  0
   30.6076   75.5371   19.2743 C   0  0  0  0  0  0  0  0  0  0  0  0
   29.7814   74.2746   19.2766 C   0  0  2  0  0  0  0  0  0  0  0  0
   28.4254   74.6398   18.6618 C   0  0  0  0  0  0  0  0  0  0  0  0
   27.6443   73.0227   18.5219 S   0  0  0  0  0  0  0  0  0  0  0  0
   28.6267   72.1131   17.8848 O   0  0  0  0  0  0  0  0  0  0  0  0
   26.3389   73.0796   17.8384 O   0  0  0  0  0  0  0  0  0  0  0  0
   27.5103   72.4984   20.2387 C   0  0  0  0  0  0  0  0  0  0  0  0
   28.8779   72.5056   20.8422 C   0  0  2  0  0  0  0  0  0  0  0  0
   28.8654   72.2226   22.2532 N   0  0  0  0  0  0  0  0  0  0  0  0
   27.6336   72.4199   22.9324 C   0  0  0  0  0  0  0  0  0  0  0  0
   27.9090   72.5625   24.3987 C   0  0  0  0  0  0  0  0  0  0  0  0
   27.9412   71.4874   25.2535 C   0  0  0  0  0  0  0  0  0  0  0  0
   28.1983   71.7365   26.5856 C   0  0  0  0  0  0  0  0  0  0  0  0
   28.4218   72.9842   27.1042 C   0  0  0  0  0  0  0  0  0  0  0  0
   28.3894   74.0681   26.2444 C   0  0  0  0  0  0  0  0  0  0  0  0
   28.6320   75.4087   26.8279 C   0  0  0  0  0  0  0  0  0  0  0  0
   30.0993   75.7810   26.8299 C   0  0  0  0  0  0  0  0  0  0  0  0
   28.1269   75.4417   28.2525 C   0  0  0  0  0  0  0  0  0  0  0  0
   27.9021   76.4717   26.0101 C   0  0  0  0  0  0  0  0  0  0  0  0
   28.1361   73.8394   24.9207 C   0  0  0  0  0  0  0  0  0  0  0  0
   29.6648   73.7681   20.6544 C   0  0  1  0  0  0  0  0  0  0  0  0
   30.9779   73.4659   21.0718 O   0  0  0  0  0  0  0  0  0  0  0  0
   30.3295   76.7523   21.4098 C   0  0  0  0  0  0  0  0  0  0  0  0
   29.8013   77.7317   22.2235 C   0  0  0  0  0  0  0  0  0  0  0  0
   30.1592   77.8390   23.5060 F   0  0  0  0  0  0  0  0  0  0  0  0
   28.8929   78.5932   21.6591 C   0  0  0  0  0  0  0  0  0  0  0  0
   28.3518   79.6089   22.5215 N   0  0  0  0  0  0  0  0  0  0  0  0
   25.5642   79.2258   18.6791 C   0  0  0  0  0  0  0  0  0  0  0  0
   24.9559   79.3432   17.4410 F   0  0  0  0  0  0  0  0  0  0  0  0
   25.4290   77.8998   19.0635 F   0  0  0  0  0  0  0  0  0  0  0  0
   24.9612   80.0415   19.6028 F   0  0  0  0  0  0  0  0  0  0  0  0
  1  2  1  0
  2  3  1  0
  3  4  1  0
  5  4  1  1
  5  6  1  0
  6  7  1  0
  7  8  2  0
  8  9  1  0
  9 10  1  0
 11 10  1  1
 11 12  1  0
 12 13  1  0
 13 14  2  0
 13 15  2  0
 13 16  1  0
 16 17  1  0
 17 18  1  1
 18 19  1  0
 19 20  1  0
 20 21  2  0
 21 22  1  0
 22 23  2  0
 23 24  1  0
 24 25  1  0
 25 26  1  0
 25 27  1  0
 25 28  1  0
 24 29  2  0
 17 30  1  0
 30 31  1  6
  9 32  2  0
 32 33  1  0
 33 34  1  0
 33 35  2  0
 35 36  1  0
  5 37  1  0
 37 38  1  0
 37 39  1  0
 37 40  1  0
 35  7  1  0
 30 11  1  0
 29 20  1  0
M  CHG  1  18   1
M  END
>  <shape_align_shape_tanimoto>  (2) 
0.44894343798016501

>  <shape_align_color_tanimoto>  (2) 
0.12245536434962634

>  <metric>  (2) 
color

>  <metric_score>  (2) 
0.122

>  <template_pid>  (2) 
4D89

>  <template_shape_score>  (2) 
0.449

>  <template_color_score>  (2) 
0.122

>  <template_combo_score>  (2) 
0.286

$$$$
4D89_combo_pose
     RDKit          3D

 40 42  0  0  0  0  0  0  0  0999 V2000
   23.2771   76.5073   19.3954 C   0  0  0  0  0  0  0  0  0  0  0  0
   23.0729   75.1519   19.9903 C   0  0  0  0  0  0  0  0  0  0  0  0
   24.0908   74.2379   19.6621 O   0  0  0  0  0  0  0  0  0  0  0  0
   23.8484   72.9953   20.2423 C   0  0  0  0  0  0  0  0  0  0  0  0
   24.9671   72.0069   19.8760 C   0  0  1  0  0  0  0  0  0  0  0  0
   26.1370   72.5345   20.3530 O   0  0  0  0  0  0  0  0  0  0  0  0
   27.3447   72.7926   19.8081 C   0  0  0  0  0  0  0  0  0  0  0  0
   28.3193   73.3552   20.6514 C   0  0  0  0  0  0  0  0  0  0  0  0
   29.5813   73.6578   20.2006 C   0  0  0  0  0  0  0  0  0  0  0  0
   30.5731   74.2523   21.1324 C   0  0  0  0  0  0  0  0  0  0  0  0
   30.4943   75.7422   21.0801 C   0  0  2  0  0  0  0  0  0  0  0  0
   31.4913   76.3769   22.0173 C   0  0  0  0  0  0  0  0  0  0  0  0
   30.7472   77.0801   23.4680 S   0  0  0  0  0  0  0  0  0  0  0  0
   31.7290   78.0627   24.0441 O   0  0  0  0  0  0  0  0  0  0  0  0
   30.4308   76.0781   24.5179 O   0  0  0  0  0  0  0  0  0  0  0  0
   29.2829   78.0124   22.9852 C   0  0  0  0  0  0  0  0  0  0  0  0
   29.2495   77.8212   21.4598 C   0  0  2  0  0  0  0  0  0  0  0  0
   28.2073   78.5688   20.8304 N   0  0  0  0  0  0  0  0  0  0  0  0
   28.6714   78.9273   19.5008 C   0  0  0  0  0  0  0  0  0  0  0  0
   27.8464   79.9618   18.8468 C   0  0  0  0  0  0  0  0  0  0  0  0
   28.2282   81.2902   19.0686 C   0  0  0  0  0  0  0  0  0  0  0  0
   27.5307   82.3422   18.5076 C   0  0  0  0  0  0  0  0  0  0  0  0
   26.4434   82.0384   17.7202 C   0  0  0  0  0  0  0  0  0  0  0  0
   26.0552   80.7344   17.4927 C   0  0  0  0  0  0  0  0  0  0  0  0
   24.8852   80.3829   16.6463 C   0  0  0  0  0  0  0  0  0  0  0  0
   23.6714   80.3270   17.5471 C   0  0  0  0  0  0  0  0  0  0  0  0
   24.7080   81.3724   15.5128 C   0  0  0  0  0  0  0  0  0  0  0  0
   25.0725   78.9814   16.0597 C   0  0  0  0  0  0  0  0  0  0  0  0
   26.7554   79.6641   18.0565 C   0  0  0  0  0  0  0  0  0  0  0  0
   29.1114   76.3068   21.2652 C   0  0  1  0  0  0  0  0  0  0  0  0
   28.3185   76.0644   20.1479 O   0  0  0  0  0  0  0  0  0  0  0  0
   29.9485   73.4205   18.8917 C   0  0  0  0  0  0  0  0  0  0  0  0
   29.0134   72.8701   18.0442 C   0  0  0  0  0  0  0  0  0  0  0  0
   29.3573   72.6283   16.7473 F   0  0  0  0  0  0  0  0  0  0  0  0
   27.7433   72.5710   18.5172 C   0  0  0  0  0  0  0  0  0  0  0  0
   26.8371   72.0074   17.5863 N   0  0  0  0  0  0  0  0  0  0  0  0
   24.6910   70.7323   20.6929 C   0  0  0  0  0  0  0  0  0  0  0  0
   24.7208   71.0676   22.0307 F   0  0  0  0  0  0  0  0  0  0  0  0
   25.6806   69.8004   20.4549 F   0  0  0  0  0  0  0  0  0  0  0  0
   23.4694   70.1926   20.3246 F   0  0  0  0  0  0  0  0  0  0  0  0
  1  2  1  0
  2  3  1  0
  3  4  1  0
  5  4  1  1
  5  6  1  0
  6  7  1  0
  7  8  2  0
  8  9  1  0
  9 10  1  0
 11 10  1  1
 11 12  1  0
 12 13  1  0
 13 14  2  0
 13 15  2  0
 13 16  1  0
 16 17  1  0
 17 18  1  1
 18 19  1  0
 19 20  1  0
 20 21  2  0
 21 22  1  0
 22 23  2  0
 23 24  1  0
 24 25  1  0
 25 26  1  0
 25 27  1  0
 25 28  1  0
 24 29  2  0
 17 30  1  0
 30 31  1  6
  9 32  2  0
 32 33  1  0
 33 34  1  0
 33 35  2  0
 35 36  1  0
  5 37  1  0
 37 38  1  0
 37 39  1  0
 37 40  1  0
 35  7  1  0
 30 11  1  0
 29 20  1  0
M  CHG  1  18   1
M  END
>  <shape_align_shape_tanimoto>  (3) 
0.58567285374033706

>  <shape_align_color_tanimoto>  (3) 
0.024698568958742527

>  <metric>  (3) 
combo

>  <metric_score>  (3) 
0.305

>  <template_pid>  (3) 
4D89

>  <template_shape_score>  (3) 
0.586

>  <template_color_score>  (3) 
0.025

>  <template_combo_score>  (3) 
0.305

$$$$
