6ST3_shape_pose
     RDKit          3D

 29 32  0  0  0  0  0  0  0  0999 V2000
  -18.5416   -7.4269   64.1392 O   0  0  0  0  0  0  0  0  0  0  0  0
  -17.5571   -8.1830   64.4626 C   0  0  0  0  0  0  0  0  0  0  0  0
  -16.3926   -8.0129   63.6787 N   0  0  0  0  0  0  0  0  0  0  0  0
  -16.3009   -7.0542   62.5811 C   0  0  0  0  0  0  0  0  0  0  0  0
  -17.5100   -6.2783   62.3495 C   0  0  0  0  0  0  0  0  0  0  0  0
  -18.4644   -6.7845   61.4581 C   0  0  0  0  0  0  0  0  0  0  0  0
  -19.6308   -6.0925   61.1975 C   0  0  0  0  0  0  0  0  0  0  0  0
  -19.8355   -4.8836   61.8394 C   0  0  0  0  0  0  0  0  0  0  0  0
  -21.0142   -4.1593   61.5919 O   0  0  0  0  0  0  0  0  0  0  0  0
  -22.1360   -4.3941   62.3965 C   0  0  0  0  0  0  0  0  0  0  0  0
  -23.3270   -3.7119   62.2023 C   0  0  0  0  0  0  0  0  0  0  0  0
  -24.4204   -3.9607   63.0090 C   0  0  0  0  0  0  0  0  0  0  0  0
  -24.3025   -4.9145   64.0258 C   0  0  0  0  0  0  0  0  0  0  0  0
  -23.1365   -5.6094   64.2462 C   0  0  0  0  0  0  0  0  0  0  0  0
  -22.0679   -5.3342   63.4219 C   0  0  0  0  0  0  0  0  0  0  0  0
  -18.8960   -4.3606   62.7326 C   0  0  0  0  0  0  0  0  0  0  0  0
  -17.7283   -5.0534   62.9934 C   0  0  0  0  0  0  0  0  0  0  0  0
  -17.7246   -9.0998   65.5531 C   0  0  0  0  0  0  0  0  0  0  0  0
  -18.9614   -9.1236   66.2139 C   0  0  0  0  0  0  0  0  0  0  0  0
  -19.1747   -9.9636   67.2438 N   0  0  0  0  0  0  0  0  0  0  0  0
  -18.2384  -10.8121   67.6931 C   0  0  0  0  0  0  0  0  0  0  0  0
  -18.5028  -11.6840   68.7842 N   0  0  0  0  0  0  0  0  0  0  0  0
  -17.7615  -12.7270   69.1834 C   0  0  0  0  0  0  0  0  0  0  0  0
  -18.3727  -13.3058   70.2809 C   0  0  0  0  0  0  0  0  0  0  0  0
  -19.5023  -12.5758   70.5247 C   0  0  0  0  0  0  0  0  0  0  0  0
  -19.5452  -11.6043   69.5981 N   0  0  0  0  0  0  0  0  0  0  0  0
  -17.0404  -10.8168   67.0835 N   0  0  0  0  0  0  0  0  0  0  0  0
  -16.7870   -9.9782   66.0346 C   0  0  0  0  0  0  0  0  0  0  0  0
  -15.6652  -10.0433   65.5302 O   0  0  0  0  0  0  0  0  0  0  0  0
  1  2  2  0
  2  3  1  0
  3  4  1  0
  4  5  1  0
  5  6  2  0
  6  7  1  0
  7  8  2  0
  8  9  1  0
  9 10  1  0
 10 11  2  0
 11 12  1  0
 12 13  2  0
 13 14  1  0
 14 15  2  0
  8 16  1  0
 16 17  2  0
  2 18  1  0
 18 19  2  0
 19 20  1  0
 20 21  2  0
 21 22  1  0
 22 23  1  0
 23 24  2  0
 24 25  1  0
 25 26  2  0
 21 27  1  0
 27 28  1  0
 28 29  2  0
 17  5  1  0
 28 18  1  0
 15 10  1  0
 26 22  1  0
M  END
>  <shape_align_shape_tanimoto>  (1) 
0.51731328555521972

>  <shape_align_color_tanimoto>  (1) 
0.019003953578212485

>  <metric>  (1) 
shape

>  <metric_score>  (1) 
0.517

>  <template_pid>  (1) 
6ST3

>  <template_shape_score>  (1) 
0.517

>  <template_color_score>  (1) 
0.019

>  <template_combo_score>  (1) 
0.268

$$$$
6ST3_color_pose
     RDKit          3D

 29 32  0  0  0  0  0  0  0  0999 V2000
  -19.1671  -11.0424   68.6712 O   0  0  0  0  0  0  0  0  0  0  0  0
  -18.2084  -10.6471   67.7377 C   0  0  0  0  0  0  0  0  0  0  0  0
  -17.2142  -11.5963   67.7814 N   0  0  0  0  0  0  0  0  0  0  0  0
  -17.2203  -12.7664   68.6501 C   0  0  0  0  0  0  0  0  0  0  0  0
  -15.8270  -13.3288   68.4677 C   0  0  0  0  0  0  0  0  0  0  0  0
  -15.5075  -14.2220   67.4721 C   0  0  0  0  0  0  0  0  0  0  0  0
  -14.2146  -14.6796   67.3072 C   0  0  0  0  0  0  0  0  0  0  0  0
  -13.2393  -14.2319   68.1543 C   0  0  0  0  0  0  0  0  0  0  0  0
  -11.8969  -14.6328   68.0669 O   0  0  0  0  0  0  0  0  0  0  0  0
  -10.9794  -13.8518   67.3502 C   0  0  0  0  0  0  0  0  0  0  0  0
  -10.3648  -12.8484   68.1204 C   0  0  0  0  0  0  0  0  0  0  0  0
   -9.4356  -12.0182   67.4743 C   0  0  0  0  0  0  0  0  0  0  0  0
   -9.1740  -12.2254   66.1411 C   0  0  0  0  0  0  0  0  0  0  0  0
   -9.7596  -13.2012   65.3647 C   0  0  0  0  0  0  0  0  0  0  0  0
  -10.6937  -14.0244   66.0370 C   0  0  0  0  0  0  0  0  0  0  0  0
  -13.5033  -13.3283   69.1817 C   0  0  0  0  0  0  0  0  0  0  0  0
  -14.8024  -12.9145   69.2905 C   0  0  0  0  0  0  0  0  0  0  0  0
  -18.6058   -9.4905   67.1594 C   0  0  0  0  0  0  0  0  0  0  0  0
  -17.5997   -9.8002   65.8382 C   0  0  0  0  0  0  0  0  0  0  0  0
  -17.4928   -9.0378   64.8636 N   0  0  0  0  0  0  0  0  0  0  0  0
  -18.0970   -7.8656   64.6159 C   0  0  0  0  0  0  0  0  0  0  0  0
  -17.8411   -7.2078   63.4381 N   0  0  0  0  0  0  0  0  0  0  0  0
  -16.6986   -7.2431   62.7507 C   0  0  0  0  0  0  0  0  0  0  0  0
  -16.8267   -6.5080   61.6090 C   0  0  0  0  0  0  0  0  0  0  0  0
  -18.1375   -6.0131   61.6473 C   0  0  0  0  0  0  0  0  0  0  0  0
  -18.7269   -6.4608   62.7783 N   0  0  0  0  0  0  0  0  0  0  0  0
  -18.9191   -7.5403   65.6121 N   0  0  0  0  0  0  0  0  0  0  0  0
  -18.9895   -8.3604   66.5909 C   0  0  0  0  0  0  0  0  0  0  0  0
  -19.8630   -7.9091   67.5590 O   0  0  0  0  0  0  0  0  0  0  0  0
  1  2  2  0
  2  3  1  0
  3  4  1  0
  4  5  1  0
  5  6  2  0
  6  7  1  0
  7  8  2  0
  8  9  1  0
  9 10  1  0
 10 11  2  0
 11 12  1  0
 12 13  2  0
 13 14  1  0
 14 15  2  0
  8 16  1  0
 16 17  2  0
  2 18  1  0
 18 19  2  0
 19 20  1  0
 20 21  2  0
 21 22  1  0
 22 23  1  0
 23 24  2  0
 24 25  1  0
 25 26  2  0
 21 27  1  0
 27 28  1  0
 28 29  2  0
 17  5  1  0
 28 18  1  0
 15 10  1  0
 26 22  1  0
M  END
>  <shape_align_shape_tanimoto>  (2) 
0.43580040762805045

>  <shape_align_color_tanimoto>  (2) 
0.13556367568080452

>  <metric>  (2) 
color

>  <metric_score>  (2) 
0.136

>  <template_pid>  (2) 
6ST3

>  <template_shape_score>  (2) 
0.436

>  <template_color_score>  (2) 
0.136

>  <template_combo_score>  (2) 
0.286

$$$$
6ST3_combo_pose
     RDKit          3D

 29 32  0  0  0  0  0  0  0  0999 V2000
  -16.8706  -11.2784   67.4943 O   0  0  0  0  0  0  0  0  0  0  0  0
  -17.6491  -10.1381   67.2608 C   0  0  0  0  0  0  0  0  0  0  0  0
  -18.4940   -9.9859   68.2776 N   0  0  0  0  0  0  0  0  0  0  0  0
  -18.5242  -11.0073   69.3563 C   0  0  0  0  0  0  0  0  0  0  0  0
  -19.3023  -12.1803   68.7881 C   0  0  0  0  0  0  0  0  0  0  0  0
  -20.6630  -11.9738   68.6893 C   0  0  0  0  0  0  0  0  0  0  0  0
  -21.5142  -12.9272   68.1356 C   0  0  0  0  0  0  0  0  0  0  0  0
  -20.9093  -14.1099   67.6839 C   0  0  0  0  0  0  0  0  0  0  0  0
  -21.7695  -15.0749   67.1137 O   0  0  0  0  0  0  0  0  0  0  0  0
  -21.8964  -14.9699   65.7010 C   0  0  0  0  0  0  0  0  0  0  0  0
  -21.0688  -15.7226   64.8858 C   0  0  0  0  0  0  0  0  0  0  0  0
  -21.1633  -15.6436   63.5203 C   0  0  0  0  0  0  0  0  0  0  0  0
  -22.1110  -14.7894   62.9750 C   0  0  0  0  0  0  0  0  0  0  0  0
  -22.9614  -14.0171   63.7334 C   0  0  0  0  0  0  0  0  0  0  0  0
  -22.8236  -14.1350   65.1242 C   0  0  0  0  0  0  0  0  0  0  0  0
  -19.5550  -14.3039   67.7915 C   0  0  0  0  0  0  0  0  0  0  0  0
  -18.7113  -13.3295   68.3546 C   0  0  0  0  0  0  0  0  0  0  0  0
  -17.1818   -9.6554   66.0239 C   0  0  0  0  0  0  0  0  0  0  0  0
  -18.4968   -8.5823   65.9528 C   0  0  0  0  0  0  0  0  0  0  0  0
  -18.6032   -7.8171   64.9561 N   0  0  0  0  0  0  0  0  0  0  0  0
  -17.8804   -7.6340   63.8634 C   0  0  0  0  0  0  0  0  0  0  0  0
  -18.1373   -6.7582   62.8204 N   0  0  0  0  0  0  0  0  0  0  0  0
  -17.2495   -6.3834   61.8850 C   0  0  0  0  0  0  0  0  0  0  0  0
  -17.9648   -5.5250   61.0633 C   0  0  0  0  0  0  0  0  0  0  0  0
  -19.2659   -5.4093   61.5313 C   0  0  0  0  0  0  0  0  0  0  0  0
  -19.3189   -6.1940   62.6224 N   0  0  0  0  0  0  0  0  0  0  0  0
  -16.7920   -8.4839   63.8672 N   0  0  0  0  0  0  0  0  0  0  0  0
  -16.7696   -9.2295   64.9325 C   0  0  0  0  0  0  0  0  0  0  0  0
  -15.6025  -10.0424   64.7994 O   0  0  0  0  0  0  0  0  0  0  0  0
  1  2  2  0
  2  3  1  0
  3  4  1  0
  4  5  1  0
  5  6  2  0
  6  7  1  0
  7  8  2  0
  8  9  1  0
  9 10  1  0
 10 11  2  0
 11 12  1  0
 12 13  2  0
 13 14  1  0
 14 15  2  0
  8 16  1  0
 16 17  2  0
  2 18  1  0
 18 19  2  0
 19 20  1  0
 20 21  2  0
 21 22  1  0
 22 23  1  0
 23 24  2  0
 24 25  1  0
 25 26  2  0
 21 27  1  0
 27 28  1  0
 28 29  2  0
 17  5  1  0
 28 18  1  0
 15 10  1  0
 26 22  1  0
M  END
>  <shape_align_shape_tanimoto>  (3) 
0.48684234782092317

>  <shape_align_color_tanimoto>  (3) 
0.12973859884157671

>  <metric>  (3) 
combo

>  <metric_score>  (3) 
0.308

>  <template_pid>  (3) 
6ST3

>  <template_shape_score>  (3) 
0.487

>  <template_color_score>  (3) 
0.130

>  <template_combo_score>  (3) 
0.308

$$$$
