5ORV_shape_pose
     RDKit          3D

 11 11  0  0  0  0  0  0  0  0999 V2000
    0.7189  -39.0474  -15.6889 C   0  0  0  0  0  0  0  0  0  0  0  0
   -0.4465  -38.1689  -16.7257 S   0  0  0  0  0  0  0  0  0  0  0  0
   -1.7211  -39.2966  -17.3982 C   0  0  0  0  0  0  0  0  0  0  0  0
   -1.4861  -39.9106  -18.5639 N   0  0  0  0  0  0  0  0  0  0  0  0
   -2.9135  -40.8812  -18.8636 S   0  0  0  0  0  0  0  0  0  0  0  0
   -3.7376  -40.3952  -17.3957 C   0  0  0  0  0  0  0  0  0  0  0  0
   -5.3700  -41.0484  -17.0464 S   0  0  0  0  0  0  0  0  0  0  0  0
   -6.1245  -40.4358  -15.5500 C   0  0  0  0  0  0  0  0  0  0  0  0
   -2.8882  -39.5466  -16.7893 C   0  0  0  0  0  0  0  0  0  0  0  0
   -3.2443  -38.8920  -15.4570 C   0  0  0  0  0  0  0  0  0  0  0  0
   -3.6802  -37.5956  -15.6368 O   0  0  0  0  0  0  0  0  0  0  0  0
  1  2  1  0
  2  3  1  0
  3  4  2  0
  4  5  1  0
  5  6  1  0
  6  7  1  0
  7  8  1  0
  6  9  2  0
  9 10  1  0
 10 11  1  0
  9  3  1  0
M  END
>  <shape_align_shape_tanimoto>  (1) 
0.44825631781995712

>  <shape_align_color_tanimoto>  (1) 
0.0030791917820307633

>  <metric>  (1) 
shape

>  <metric_score>  (1) 
0.448

>  <template_pid>  (1) 
5ORV

>  <template_shape_score>  (1) 
0.448

>  <template_color_score>  (1) 
0.003

>  <template_combo_score>  (1) 
0.226

$$$$
5ORV_color_pose
     RDKit          3D

 11 11  0  0  0  0  0  0  0  0999 V2000
   -5.6876  -37.2750  -14.4263 C   0  0  0  0  0  0  0  0  0  0  0  0
   -5.0973  -38.9676  -14.0349 S   0  0  0  0  0  0  0  0  0  0  0  0
   -5.0295  -39.9222  -15.5928 C   0  0  0  0  0  0  0  0  0  0  0  0
   -6.1268  -40.6023  -15.9758 N   0  0  0  0  0  0  0  0  0  0  0  0
   -5.5593  -41.3771  -17.5647 S   0  0  0  0  0  0  0  0  0  0  0  0
   -4.0247  -40.7244  -17.5025 C   0  0  0  0  0  0  0  0  0  0  0  0
   -2.7406  -41.0049  -18.7616 S   0  0  0  0  0  0  0  0  0  0  0  0
   -2.8819  -39.7166  -20.0527 C   0  0  0  0  0  0  0  0  0  0  0  0
   -3.9488  -39.9808  -16.3709 C   0  0  0  0  0  0  0  0  0  0  0  0
   -2.6598  -39.2427  -16.0176 C   0  0  0  0  0  0  0  0  0  0  0  0
   -1.7069  -39.4629  -16.9710 O   0  0  0  0  0  0  0  0  0  0  0  0
  1  2  1  0
  2  3  1  0
  3  4  2  0
  4  5  1  0
  5  6  1  0
  6  7  1  0
  7  8  1  0
  6  9  2  0
  9 10  1  0
 10 11  1  0
  9  3  1  0
M  END
>  <shape_align_shape_tanimoto>  (2) 
0.38301704958063165

>  <shape_align_color_tanimoto>  (2) 
0.096205513862291148

>  <metric>  (2) 
color

>  <metric_score>  (2) 
0.096

>  <template_pid>  (2) 
5ORV

>  <template_shape_score>  (2) 
0.383

>  <template_color_score>  (2) 
0.096

>  <template_combo_score>  (2) 
0.240

$$$$
5ORV_combo_pose
     RDKit          3D

 11 11  0  0  0  0  0  0  0  0999 V2000
   -1.5200  -40.1279  -18.9972 C   0  0  0  0  0  0  0  0  0  0  0  0
   -2.9038  -41.1774  -18.8169 S   0  0  0  0  0  0  0  0  0  0  0  0
   -4.1169  -40.7714  -17.6020 C   0  0  0  0  0  0  0  0  0  0  0  0
   -5.2614  -41.7216  -17.5302 N   0  0  0  0  0  0  0  0  0  0  0  0
   -6.2507  -41.2076  -16.3961 S   0  0  0  0  0  0  0  0  0  0  0  0
   -5.3044  -39.7053  -15.8797 C   0  0  0  0  0  0  0  0  0  0  0  0
   -5.7291  -38.5755  -14.6620 S   0  0  0  0  0  0  0  0  0  0  0  0
   -5.1382  -38.9332  -13.0068 C   0  0  0  0  0  0  0  0  0  0  0  0
   -4.1976  -39.7981  -16.7612 C   0  0  0  0  0  0  0  0  0  0  0  0
   -3.1458  -38.6956  -16.6282 C   0  0  0  0  0  0  0  0  0  0  0  0
   -2.0821  -39.2063  -15.9450 O   0  0  0  0  0  0  0  0  0  0  0  0
  1  2  1  0
  2  3  1  0
  3  4  2  0
  4  5  1  0
  5  6  1  0
  6  7  1  0
  7  8  1  0
  6  9  2  0
  9 10  1  0
 10 11  1  0
  9  3  1  0
M  END
>  <shape_align_shape_tanimoto>  (3) 
0.39562625194352519

>  <shape_align_color_tanimoto>  (3) 
0.087940633879106167

>  <metric>  (3) 
combo

>  <metric_score>  (3) 
0.242

>  <template_pid>  (3) 
5ORV

>  <template_shape_score>  (3) 
0.396

>  <template_color_score>  (3) 
0.088

>  <template_combo_score>  (3) 
0.242

$$$$
