6DZ2_shape_pose
     RDKit          3D

 34 38  0  0  0  0  0  0  0  0999 V2000
   50.1621   49.1698   25.5815 N   0  0  0  0  0  0  0  0  0  0  0  0
   51.1751   48.4022   26.2221 C   0  0  0  0  0  0  0  0  0  0  0  0
   50.8827   47.5847   27.2686 N   0  0  0  0  0  0  0  0  0  0  0  0
   51.8732   46.8757   27.8455 C   0  0  0  0  0  0  0  0  0  0  0  0
   53.1529   46.9314   27.4392 N   0  0  0  0  0  0  0  0  0  0  0  0
   53.4920   47.7094   26.4274 C   0  0  0  0  0  0  0  0  0  0  0  0
   54.7044   47.9532   25.8198 C   0  0  0  0  0  0  0  0  0  0  0  0
   56.0447   47.4586   26.0555 C   0  0  0  0  0  0  0  0  0  0  0  0
   56.2551   46.5277   27.0911 N   0  0  2  0  0  0  0  0  0  0  0  0
   56.3267   47.0872   28.4290 C   0  0  0  0  0  0  0  0  0  0  0  0
   56.5631   45.7741   29.2019 C   0  0  2  0  0  0  0  0  0  0  0  0
   56.9960   46.1512   30.5619 C   0  0  0  0  0  0  0  0  0  0  0  0
   57.3618   44.8432   31.7006 S   0  0  0  0  0  0  0  0  0  0  0  0
   56.0001   43.7870   32.1557 C   0  0  0  0  0  0  0  0  0  0  0  0
   54.8773   44.4447   32.8801 C   0  0  0  0  0  0  0  0  0  0  0  0
   53.7805   43.5134   33.2747 C   0  0  0  0  0  0  0  0  0  0  0  0
   53.1332   42.7789   32.1905 C   0  0  0  0  0  0  0  0  0  0  0  0
   52.0392   43.0573   31.4024 C   0  0  0  0  0  0  0  0  0  0  0  0
   51.8393   42.0406   30.5487 N   0  0  0  0  0  0  0  0  0  0  0  0
   50.8440   41.8343   29.5317 C   0  0  0  0  0  0  0  0  0  0  0  0
   51.2110   42.3215   28.1939 C   0  0  0  0  0  0  0  0  0  0  0  0
   51.9277   41.4369   27.3802 C   0  0  0  0  0  0  0  0  0  0  0  0
   52.3265   41.7475   26.1131 C   0  0  0  0  0  0  0  0  0  0  0  0
   52.0089   42.9886   25.6126 C   0  0  0  0  0  0  0  0  0  0  0  0
   51.3083   43.8582   26.4033 C   0  0  0  0  0  0  0  0  0  0  0  0
   50.8936   43.5630   27.6932 C   0  0  0  0  0  0  0  0  0  0  0  0
   52.7940   41.1403   30.7980 N   0  0  0  0  0  0  0  0  0  0  0  0
   53.5772   41.5549   31.7701 N   0  0  0  0  0  0  0  0  0  0  0  0
   57.5967   45.1196   28.3238 C   0  0  1  0  0  0  0  0  0  0  0  0
   57.1093   43.8427   28.0214 O   0  0  0  0  0  0  0  0  0  0  0  0
   57.5695   45.8837   27.0180 C   0  0  0  0  0  0  0  0  0  0  0  0
   54.3977   48.8765   24.8087 C   0  0  0  0  0  0  0  0  0  0  0  0
   53.1003   49.1335   24.8467 N   0  0  0  0  0  0  0  0  0  0  0  0
   52.4979   48.4498   25.8142 C   0  0  0  0  0  0  0  0  0  0  0  0
  1  2  1  0
  2  3  2  0
  3  4  1  0
  4  5  2  0
  5  6  1  0
  6  7  1  0
  7  8  1  0
  9  8  1  6
  9 10  1  0
 10 11  1  0
 11 12  1  1
 12 13  1  0
 13 14  1  0
 14 15  1  0
 15 16  1  0
 16 17  1  0
 17 18  2  0
 18 19  1  0
 19 20  1  0
 20 21  1  0
 21 22  2  0
 22 23  1  0
 23 24  2  0
 24 25  1  0
 25 26  2  0
 19 27  1  0
 27 28  2  0
 11 29  1  0
 29 30  1  6
 29 31  1  0
  7 32  2  0
 32 33  1  0
 33 34  1  0
 34  2  1  0
 34  6  2  0
 31  9  1  0
 28 17  1  0
 26 21  1  0
M  CHG  1   9   1
M  END
>  <shape_align_shape_tanimoto>  (1) 
0.32150880800470616

>  <shape_align_color_tanimoto>  (1) 
0.047738993911413806

>  <metric>  (1) 
shape

>  <metric_score>  (1) 
0.322

>  <template_pid>  (1) 
6DZ2

>  <template_shape_score>  (1) 
0.322

>  <template_color_score>  (1) 
0.048

>  <template_combo_score>  (1) 
0.185

$$$$
6DZ2_color_pose
     RDKit          3D

 34 38  0  0  0  0  0  0  0  0999 V2000
   50.6276   48.4446   26.5580 N   0  0  0  0  0  0  0  0  0  0  0  0
   51.9926   48.3605   26.1686 C   0  0  0  0  0  0  0  0  0  0  0  0
   52.3805   49.0967   25.1191 N   0  0  0  0  0  0  0  0  0  0  0  0
   53.6546   49.0904   24.6661 C   0  0  0  0  0  0  0  0  0  0  0  0
   54.6078   48.3253   25.2671 N   0  0  0  0  0  0  0  0  0  0  0  0
   54.2388   47.5804   26.3200 C   0  0  0  0  0  0  0  0  0  0  0  0
   54.9437   46.7214   27.1039 C   0  0  0  0  0  0  0  0  0  0  0  0
   56.3655   46.3203   27.1100 C   0  0  0  0  0  0  0  0  0  0  0  0
   57.1346   47.3234   27.7926 N   0  0  2  0  0  0  0  0  0  0  0  0
   57.8994   48.2080   26.9729 C   0  0  0  0  0  0  0  0  0  0  0  0
   58.8474   48.8829   27.9103 C   0  0  2  0  0  0  0  0  0  0  0  0
   60.2423   49.0640   27.4223 C   0  0  0  0  0  0  0  0  0  0  0  0
   60.3611   50.0797   25.9686 S   0  0  0  0  0  0  0  0  0  0  0  0
   59.6157   49.4310   24.4810 C   0  0  0  0  0  0  0  0  0  0  0  0
   59.9347   50.3660   23.3097 C   0  0  0  0  0  0  0  0  0  0  0  0
   59.4567   51.7547   23.5683 C   0  0  0  0  0  0  0  0  0  0  0  0
   58.0083   51.8466   23.7875 C   0  0  0  0  0  0  0  0  0  0  0  0
   57.3757   53.0633   24.0619 C   0  0  0  0  0  0  0  0  0  0  0  0
   56.0598   52.8383   24.2252 N   0  0  0  0  0  0  0  0  0  0  0  0
   55.0114   53.7755   24.5237 C   0  0  0  0  0  0  0  0  0  0  0  0
   54.4214   54.3143   23.2813 C   0  0  0  0  0  0  0  0  0  0  0  0
   53.3341   53.6903   22.7234 C   0  0  0  0  0  0  0  0  0  0  0  0
   52.8009   54.2237   21.5524 C   0  0  0  0  0  0  0  0  0  0  0  0
   53.3299   55.3456   20.9491 C   0  0  0  0  0  0  0  0  0  0  0  0
   54.4336   55.9679   21.5272 C   0  0  0  0  0  0  0  0  0  0  0  0
   54.9803   55.4524   22.6942 C   0  0  0  0  0  0  0  0  0  0  0  0
   55.9023   51.5450   24.0568 N   0  0  0  0  0  0  0  0  0  0  0  0
   57.0319   50.9435   23.7990 N   0  0  0  0  0  0  0  0  0  0  0  0
   58.8195   47.9817   29.1510 C   0  0  1  0  0  0  0  0  0  0  0  0
   57.9975   48.5624   30.1193 O   0  0  0  0  0  0  0  0  0  0  0  0
   58.1315   46.7216   28.6645 C   0  0  0  0  0  0  0  0  0  0  0  0
   54.0338   46.2177   28.0411 C   0  0  0  0  0  0  0  0  0  0  0  0
   52.8196   46.7520   27.8344 N   0  0  0  0  0  0  0  0  0  0  0  0
   52.9235   47.5754   26.8012 C   0  0  0  0  0  0  0  0  0  0  0  0
  1  2  1  0
  2  3  2  0
  3  4  1  0
  4  5  2  0
  5  6  1  0
  6  7  1  0
  7  8  1  0
  9  8  1  6
  9 10  1  0
 10 11  1  0
 11 12  1  6
 12 13  1  0
 13 14  1  0
 14 15  1  0
 15 16  1  0
 16 17  1  0
 17 18  2  0
 18 19  1  0
 19 20  1  0
 20 21  1  0
 21 22  2  0
 22 23  1  0
 23 24  2  0
 24 25  1  0
 25 26  2  0
 19 27  1  0
 27 28  2  0
 11 29  1  0
 29 30  1  1
 29 31  1  0
  7 32  2  0
 32 33  1  0
 33 34  1  0
 34  2  1  0
 34  6  2  0
 31  9  1  0
 28 17  1  0
 26 21  1  0
M  CHG  1   9   1
M  END
>  <shape_align_shape_tanimoto>  (2) 
0.29472780963077561

>  <shape_align_color_tanimoto>  (2) 
0.12775167370892757

>  <metric>  (2) 
color

>  <metric_score>  (2) 
0.128

>  <template_pid>  (2) 
6DZ2

>  <template_shape_score>  (2) 
0.295

>  <template_color_score>  (2) 
0.128

>  <template_combo_score>  (2) 
0.211

$$$$
6DZ2_combo_pose
     RDKit          3D

 34 38  0  0  0  0  0  0  0  0999 V2000
   50.5681   48.1662   26.2141 N   0  0  0  0  0  0  0  0  0  0  0  0
   51.9814   48.2694   25.9425 C   0  0  0  0  0  0  0  0  0  0  0  0
   52.4498   48.9871   24.8970 N   0  0  0  0  0  0  0  0  0  0  0  0
   53.7934   49.0730   24.6543 C   0  0  0  0  0  0  0  0  0  0  0  0
   54.6944   48.4499   25.4432 N   0  0  0  0  0  0  0  0  0  0  0  0
   54.2370   47.7333   26.4861 C   0  0  0  0  0  0  0  0  0  0  0  0
   54.9454   47.0105   27.4333 C   0  0  0  0  0  0  0  0  0  0  0  0
   56.3813   46.7845   27.5988 C   0  0  0  0  0  0  0  0  0  0  0  0
   56.9667   45.8269   26.7356 N   0  0  2  0  0  0  0  0  0  0  0  0
   58.3178   45.5345   27.2397 C   0  0  0  0  0  0  0  0  0  0  0  0
   59.0084   44.8784   26.0601 C   0  0  2  0  0  0  0  0  0  0  0  0
   60.4654   45.1206   25.9891 C   0  0  0  0  0  0  0  0  0  0  0  0
   61.0576   46.7812   25.8601 S   0  0  0  0  0  0  0  0  0  0  0  0
   60.7427   47.6393   24.3233 C   0  0  0  0  0  0  0  0  0  0  0  0
   61.5648   48.9352   24.2939 C   0  0  0  0  0  0  0  0  0  0  0  0
   61.1125   49.8300   25.4192 C   0  0  0  0  0  0  0  0  0  0  0  0
   59.6946   50.2404   25.2428 C   0  0  0  0  0  0  0  0  0  0  0  0
   59.3787   51.3991   24.5297 C   0  0  0  0  0  0  0  0  0  0  0  0
   58.0290   51.5002   24.5366 N   0  0  0  0  0  0  0  0  0  0  0  0
   57.3499   52.6014   23.8782 C   0  0  0  0  0  0  0  0  0  0  0  0
   57.0383   52.3006   22.4717 C   0  0  0  0  0  0  0  0  0  0  0  0
   58.0526   52.5328   21.5353 C   0  0  0  0  0  0  0  0  0  0  0  0
   57.8496   52.2810   20.1824 C   0  0  0  0  0  0  0  0  0  0  0  0
   56.6222   51.7910   19.7455 C   0  0  0  0  0  0  0  0  0  0  0  0
   55.5987   51.5542   20.6695 C   0  0  0  0  0  0  0  0  0  0  0  0
   55.8306   51.8158   22.0225 C   0  0  0  0  0  0  0  0  0  0  0  0
   57.5620   50.4718   25.2090 N   0  0  0  0  0  0  0  0  0  0  0  0
   58.5447   49.7062   25.6399 N   0  0  0  0  0  0  0  0  0  0  0  0
   58.2852   45.3112   24.8451 C   0  0  1  0  0  0  0  0  0  0  0  0
   57.7553   44.1766   24.1906 O   0  0  0  0  0  0  0  0  0  0  0  0
   57.1564   46.1821   25.3676 C   0  0  0  0  0  0  0  0  0  0  0  0
   53.9767   46.4696   28.2789 C   0  0  0  0  0  0  0  0  0  0  0  0
   52.7468   46.8489   27.8595 N   0  0  0  0  0  0  0  0  0  0  0  0
   52.8893   47.6272   26.7569 C   0  0  0  0  0  0  0  0  0  0  0  0
  1  2  1  0
  2  3  2  0
  3  4  1  0
  4  5  2  0
  5  6  1  0
  6  7  1  0
  7  8  1  0
  9  8  1  1
  9 10  1  0
 10 11  1  0
 11 12  1  6
 12 13  1  0
 13 14  1  0
 14 15  1  0
 15 16  1  0
 16 17  1  0
 17 18  2  0
 18 19  1  0
 19 20  1  0
 20 21  1  0
 21 22  2  0
 22 23  1  0
 23 24  2  0
 24 25  1  0
 25 26  2  0
 19 27  1  0
 27 28  2  0
 11 29  1  0
 29 30  1  1
 29 31  1  0
  7 32  2  0
 32 33  1  0
 33 34  1  0
 34  2  1  0
 34  6  2  0
 31  9  1  0
 28 17  1  0
 26 21  1  0
M  CHG  1   9   1
M  END
>  <shape_align_shape_tanimoto>  (3) 
0.29542849461678394

>  <shape_align_color_tanimoto>  (3) 
0.12709000148360983

>  <metric>  (3) 
combo

>  <metric_score>  (3) 
0.211

>  <template_pid>  (3) 
6DZ2

>  <template_shape_score>  (3) 
0.295

>  <template_color_score>  (3) 
0.127

>  <template_combo_score>  (3) 
0.211

$$$$
