6MJQ_shape_pose
     RDKit          3D

 71 72  0  0  0  0  0  0  0  0999 V2000
  -31.2523   51.7523   -4.8143 C   0  0  0  0  0  0  0  0  0  0  0  0
  -31.6820   50.6507   -3.8947 C   0  0  0  0  0  0  0  0  0  0  0  0
  -30.4457   49.8980   -3.3221 C   0  0  0  0  0  0  0  0  0  0  0  0
  -29.6606   49.3109   -4.4260 C   0  0  0  0  0  0  0  0  0  0  0  0
  -28.4943   48.5193   -4.0652 C   0  0  0  0  0  0  0  0  0  0  0  0
  -27.3036   49.0024   -3.3806 C   0  0  0  0  0  0  0  0  0  0  0  0
  -27.3432   49.5768   -2.0142 C   0  0  0  0  0  0  0  0  0  0  0  0
  -25.9113   49.9213   -1.5314 C   0  0  0  0  0  0  0  0  0  0  0  0
  -25.2531   50.9260   -2.4507 C   0  0  0  0  0  0  0  0  0  0  0  0
  -25.9928   52.2172   -2.5344 C   0  0  0  0  0  0  0  0  0  0  0  0
  -25.3468   53.2098   -3.5154 C   0  0  0  0  0  0  0  0  0  0  0  0
  -25.3530   52.6296   -4.8796 C   0  0  0  0  0  0  0  0  0  0  0  0
  -24.7017   53.5190   -5.9551 C   0  0  0  0  0  0  0  0  0  0  0  0
  -25.4194   54.8031   -5.9922 C   0  0  0  0  0  0  0  0  0  0  0  0
  -25.2496   55.8509   -6.9685 C   0  0  0  0  0  0  0  0  0  0  0  0
  -24.0506   56.5647   -7.3289 C   0  0  0  0  0  0  0  0  0  0  0  0
  -22.8950   56.0825   -8.0796 C   0  0  0  0  0  0  0  0  0  0  0  0
  -22.0734   54.9802   -7.6008 C   0  0  0  0  0  0  0  0  0  0  0  0
  -20.8628   54.7444   -8.5568 C   0  0  0  0  0  0  0  0  0  0  0  0
  -21.3365   54.3416   -9.9160 C   0  0  0  0  0  0  0  0  0  0  0  0
  -22.0882   53.0142   -9.9216 C   0  0  0  0  0  0  0  0  0  0  0  0
  -21.1929   51.8860   -9.5169 C   0  0  0  0  0  0  0  0  0  0  0  0
  -21.8877   50.5427   -9.4338 C   0  0  0  0  0  0  0  0  0  0  0  0
  -20.9265   49.4384   -9.1020 C   0  0  0  0  0  0  0  0  0  0  0  0
  -21.5418   48.0938   -8.9083 C   0  0  0  0  0  0  0  0  0  0  0  0
  -22.2746   47.6311  -10.0913 C   0  0  0  0  0  0  0  0  0  0  0  0
  -22.3523   48.2127  -11.1880 O   0  0  0  0  0  0  0  0  0  0  0  0
  -22.9763   46.3867   -9.9704 N   0  0  0  0  0  0  0  0  0  0  0  0
  -23.7622   45.7735  -10.9652 C   0  0  1  0  0  0  0  0  0  0  0  0
  -23.5589   44.3928  -11.3965 C   0  0  0  0  0  0  0  0  0  0  0  0
  -22.3621   44.1406  -11.9231 O   0  0  0  0  0  0  0  0  0  0  0  0
  -21.7771   44.7452  -12.9305 C   0  0  1  0  0  0  0  0  0  0  0  0
  -20.5173   45.1606  -12.5307 O   0  0  0  0  0  0  0  0  0  0  0  0
  -19.9516   44.0553  -11.8632 C   0  0  2  0  0  0  0  0  0  0  0  0
  -18.4576   44.3155  -11.6475 C   0  0  0  0  0  0  0  0  0  0  0  0
  -17.8304   44.4837  -12.8763 O   0  0  0  0  0  0  0  0  0  0  0  0
  -20.1491   42.7459  -12.5390 C   0  0  2  0  0  0  0  0  0  0  0  0
  -19.0274   41.9630  -12.3801 O   0  0  0  0  0  0  0  0  0  0  0  0
  -19.1705   40.7627  -11.7590 C   0  0  0  0  0  0  0  0  0  0  0  0
  -20.0855   39.8700  -12.4810 C   0  0  0  0  0  0  0  0  0  0  0  0
  -19.5442   39.1313  -13.5350 C   0  0  0  0  0  0  0  0  0  0  0  0
  -20.3060   38.2522  -14.2751 C   0  0  0  0  0  0  0  0  0  0  0  0
  -21.6403   38.0710  -13.9965 C   0  0  0  0  0  0  0  0  0  0  0  0
  -22.4723   37.1317  -14.7925 C   0  0  0  0  0  0  0  0  0  0  0  0
  -23.7359   37.1190  -14.2557 F   0  0  0  0  0  0  0  0  0  0  0  0
  -21.9168   35.8728  -14.6319 F   0  0  0  0  0  0  0  0  0  0  0  0
  -22.4679   37.4337  -16.1415 F   0  0  0  0  0  0  0  0  0  0  0  0
  -22.1764   38.7972  -12.9563 C   0  0  0  0  0  0  0  0  0  0  0  0
  -21.4167   39.6887  -12.2009 C   0  0  0  0  0  0  0  0  0  0  0  0
  -20.5236   42.8703  -14.0038 C   0  0  2  0  0  0  0  0  0  0  0  0
  -19.3346   43.0838  -14.7024 O   0  0  0  0  0  0  0  0  0  0  0  0
  -21.5403   43.9675  -14.2120 C   0  0  1  0  0  0  0  0  0  0  0  0
  -22.7031   43.5498  -14.8423 O   0  0  0  0  0  0  0  0  0  0  0  0
  -25.2544   46.0518  -10.5969 C   0  0  2  0  0  0  0  0  0  0  0  0
  -25.3951   47.4574  -10.6913 O   0  0  0  0  0  0  0  0  0  0  0  0
  -25.5752   45.6187   -9.2222 C   0  0  2  0  0  0  0  0  0  0  0  0
  -25.2770   44.2095   -9.0747 O   0  0  0  0  0  0  0  0  0  0  0  0
  -26.9893   45.7354   -8.8135 C   0  0  0  0  0  0  0  0  0  0  0  0
  -27.7991   46.9387   -8.7640 C   0  0  0  0  0  0  0  0  0  0  0  0
  -28.1799   47.7018   -9.9672 C   0  0  0  0  0  0  0  0  0  0  0  0
  -28.9416   46.8519  -10.9694 C   0  0  0  0  0  0  0  0  0  0  0  0
  -29.2953   47.6083  -12.1937 C   0  0  0  0  0  0  0  0  0  0  0  0
  -28.1122   48.1382  -12.9787 C   0  0  0  0  0  0  0  0  0  0  0  0
  -28.5065   48.7901  -14.2516 C   0  0  0  0  0  0  0  0  0  0  0  0
  -29.1524   47.9935  -15.3113 C   0  0  0  0  0  0  0  0  0  0  0  0
  -28.4142   46.9299  -16.0043 C   0  0  0  0  0  0  0  0  0  0  0  0
  -27.8640   45.7426  -15.3507 C   0  0  0  0  0  0  0  0  0  0  0  0
  -28.8062   44.7991  -14.6693 C   0  0  0  0  0  0  0  0  0  0  0  0
  -28.0432   43.6201  -14.0494 C   0  0  0  0  0  0  0  0  0  0  0  0
  -27.3069   42.8313  -15.0866 C   0  0  0  0  0  0  0  0  0  0  0  0
  -28.2382   42.2531  -16.1300 C   0  0  0  0  0  0  0  0  0  0  0  0
  1  2  1  0
  2  3  1  0
  3  4  1  0
  4  5  1  0
  5  6  1  0
  6  7  1  0
  7  8  1  0
  8  9  1  0
  9 10  1  0
 10 11  1  0
 11 12  1  0
 12 13  1  0
 13 14  1  0
 14 15  1  0
 15 16  1  0
 16 17  1  0
 17 18  1  0
 18 19  1  0
 19 20  1  0
 20 21  1  0
 21 22  1  0
 22 23  1  0
 23 24  1  0
 24 25  1  0
 25 26  1  0
 26 27  2  0
 26 28  1  0
 28 29  1  0
 29 30  1  1
 30 31  1  0
 32 31  1  1
 32 33  1  0
 33 34  1  0
 34 35  1  6
 35 36  1  0
 34 37  1  0
 37 38  1  6
 38 39  1  0
 39 40  1  0
 40 41  2  0
 41 42  1  0
 42 43  2  0
 43 44  1  0
 44 45  1  0
 44 46  1  0
 44 47  1  0
 43 48  1  0
 48 49  2  0
 37 50  1  0
 50 51  1  6
 50 52  1  0
 52 53  1  1
 29 54  1  0
 54 55  1  1
 54 56  1  0
 56 57  1  6
 56 58  1  0
 58 59  1  0
 59 60  1  0
 60 61  1  0
 61 62  1  0
 62 63  1  0
 63 64  1  0
 64 65  1  0
 65 66  1  0
 66 67  1  0
 67 68  1  0
 68 69  1  0
 69 70  1  0
 70 71  1  0
 52 32  1  0
 49 40  1  0
M  END
>  <shape_align_shape_tanimoto>  (1) 
0.28062545106277648

>  <shape_align_color_tanimoto>  (1) 
0.030069153497119243

>  <metric>  (1) 
shape

>  <metric_score>  (1) 
0.281

>  <template_pid>  (1) 
6MJQ

>  <template_shape_score>  (1) 
0.281

>  <template_color_score>  (1) 
0.030

>  <template_combo_score>  (1) 
0.155

$$$$
6MJQ_color_pose
     RDKit          3D

 71 72  0  0  0  0  0  0  0  0999 V2000
  -26.4650   40.9560  -22.9934 C   0  0  0  0  0  0  0  0  0  0  0  0
  -25.5505   42.1121  -22.8184 C   0  0  0  0  0  0  0  0  0  0  0  0
  -24.4562   42.2186  -23.7710 C   0  0  0  0  0  0  0  0  0  0  0  0
  -23.3016   41.3647  -23.9116 C   0  0  0  0  0  0  0  0  0  0  0  0
  -23.2688   39.9348  -24.1464 C   0  0  0  0  0  0  0  0  0  0  0  0
  -23.6992   38.9839  -23.0681 C   0  0  0  0  0  0  0  0  0  0  0  0
  -23.5380   37.5883  -23.6024 C   0  0  0  0  0  0  0  0  0  0  0  0
  -23.9083   36.4582  -22.7449 C   0  0  0  0  0  0  0  0  0  0  0  0
  -25.3080   36.1713  -22.3707 C   0  0  0  0  0  0  0  0  0  0  0  0
  -26.1087   37.2247  -21.7074 C   0  0  0  0  0  0  0  0  0  0  0  0
  -27.4840   36.8248  -21.2531 C   0  0  0  0  0  0  0  0  0  0  0  0
  -27.4356   35.7636  -20.2002 C   0  0  0  0  0  0  0  0  0  0  0  0
  -26.5890   36.2762  -19.0346 C   0  0  0  0  0  0  0  0  0  0  0  0
  -27.1114   37.5923  -18.5582 C   0  0  0  0  0  0  0  0  0  0  0  0
  -26.1973   38.0919  -17.3960 C   0  0  0  0  0  0  0  0  0  0  0  0
  -26.5944   39.4685  -17.0577 C   0  0  0  0  0  0  0  0  0  0  0  0
  -25.9220   40.2560  -16.0022 C   0  0  0  0  0  0  0  0  0  0  0  0
  -24.4248   40.3466  -16.1014 C   0  0  0  0  0  0  0  0  0  0  0  0
  -23.7728   39.1151  -15.6061 C   0  0  0  0  0  0  0  0  0  0  0  0
  -22.2674   39.0320  -15.8362 C   0  0  0  0  0  0  0  0  0  0  0  0
  -21.7912   37.7889  -15.1537 C   0  0  0  0  0  0  0  0  0  0  0  0
  -21.9546   37.7973  -13.6716 C   0  0  0  0  0  0  0  0  0  0  0  0
  -21.0846   38.7268  -12.9088 C   0  0  0  0  0  0  0  0  0  0  0  0
  -21.0255   40.1498  -13.2746 C   0  0  0  0  0  0  0  0  0  0  0  0
  -20.1501   40.8960  -12.2134 C   0  0  0  0  0  0  0  0  0  0  0  0
  -19.9937   42.2959  -12.7128 C   0  0  0  0  0  0  0  0  0  0  0  0
  -20.5417   42.5041  -13.8591 O   0  0  0  0  0  0  0  0  0  0  0  0
  -19.3210   43.3288  -12.0536 N   0  0  0  0  0  0  0  0  0  0  0  0
  -19.2533   44.6184  -12.7598 C   0  0  1  0  0  0  0  0  0  0  0  0
  -20.0709   45.5556  -11.8454 C   0  0  0  0  0  0  0  0  0  0  0  0
  -21.3679   45.1040  -11.6678 O   0  0  0  0  0  0  0  0  0  0  0  0
  -22.0930   45.9608  -10.8225 C   0  0  1  0  0  0  0  0  0  0  0  0
  -23.2129   46.4260  -11.4885 O   0  0  0  0  0  0  0  0  0  0  0  0
  -23.9062   45.3650  -12.0930 C   0  0  2  0  0  0  0  0  0  0  0  0
  -25.0908   45.9638  -12.8134 C   0  0  0  0  0  0  0  0  0  0  0  0
  -25.9336   46.6356  -11.9311 O   0  0  0  0  0  0  0  0  0  0  0  0
  -24.3890   44.3826  -11.0718 C   0  0  2  0  0  0  0  0  0  0  0  0
  -25.7413   44.0897  -11.1290 O   0  0  0  0  0  0  0  0  0  0  0  0
  -25.9418   42.6988  -11.3048 C   0  0  0  0  0  0  0  0  0  0  0  0
  -27.3574   42.3280  -11.3927 C   0  0  0  0  0  0  0  0  0  0  0  0
  -28.0761   42.1870  -12.5512 C   0  0  0  0  0  0  0  0  0  0  0  0
  -29.3980   41.8584  -12.5765 C   0  0  0  0  0  0  0  0  0  0  0  0
  -30.0813   41.6488  -11.4188 C   0  0  0  0  0  0  0  0  0  0  0  0
  -31.5009   41.2931  -11.3831 C   0  0  0  0  0  0  0  0  0  0  0  0
  -31.7156   40.1458  -12.0958 F   0  0  0  0  0  0  0  0  0  0  0  0
  -32.3119   42.2820  -11.9306 F   0  0  0  0  0  0  0  0  0  0  0  0
  -31.9183   41.0603  -10.0808 F   0  0  0  0  0  0  0  0  0  0  0  0
  -29.3969   41.7793  -10.2091 C   0  0  0  0  0  0  0  0  0  0  0  0
  -28.0474   42.1153  -10.1880 C   0  0  0  0  0  0  0  0  0  0  0  0
  -23.9741   44.7999   -9.6667 C   0  0  2  0  0  0  0  0  0  0  0  0
  -24.7972   45.8449   -9.2744 O   0  0  0  0  0  0  0  0  0  0  0  0
  -22.5569   45.2183   -9.5888 C   0  0  1  0  0  0  0  0  0  0  0  0
  -21.7768   44.0469   -9.4759 O   0  0  0  0  0  0  0  0  0  0  0  0
  -17.7960   45.0626  -12.7308 C   0  0  2  0  0  0  0  0  0  0  0  0
  -17.5296   45.3184  -11.3875 O   0  0  0  0  0  0  0  0  0  0  0  0
  -17.4339   46.1890  -13.5848 C   0  0  2  0  0  0  0  0  0  0  0  0
  -18.1826   47.3087  -13.3649 O   0  0  0  0  0  0  0  0  0  0  0  0
  -17.4219   45.8788  -15.1008 C   0  0  0  0  0  0  0  0  0  0  0  0
  -16.4564   44.8056  -15.3781 C   0  0  0  0  0  0  0  0  0  0  0  0
  -16.1875   44.4089  -16.7553 C   0  0  0  0  0  0  0  0  0  0  0  0
  -17.1490   43.8638  -17.7094 C   0  0  0  0  0  0  0  0  0  0  0  0
  -18.2458   44.7607  -18.1591 C   0  0  0  0  0  0  0  0  0  0  0  0
  -19.0971   44.0347  -19.2257 C   0  0  0  0  0  0  0  0  0  0  0  0
  -20.1413   44.9724  -19.7198 C   0  0  0  0  0  0  0  0  0  0  0  0
  -21.1225   45.4919  -18.7149 C   0  0  0  0  0  0  0  0  0  0  0  0
  -22.0951   46.4510  -19.4258 C   0  0  0  0  0  0  0  0  0  0  0  0
  -23.0996   46.9705  -18.4469 C   0  0  0  0  0  0  0  0  0  0  0  0
  -24.0481   47.9306  -19.1176 C   0  0  0  0  0  0  0  0  0  0  0  0
  -25.0798   48.4609  -18.1963 C   0  0  0  0  0  0  0  0  0  0  0  0
  -25.9578   47.3616  -17.6325 C   0  0  0  0  0  0  0  0  0  0  0  0
  -26.6369   46.6624  -18.8037 C   0  0  0  0  0  0  0  0  0  0  0  0
  1  2  1  0
  2  3  1  0
  3  4  1  0
  4  5  1  0
  5  6  1  0
  6  7  1  0
  7  8  1  0
  8  9  1  0
  9 10  1  0
 10 11  1  0
 11 12  1  0
 12 13  1  0
 13 14  1  0
 14 15  1  0
 15 16  1  0
 16 17  1  0
 17 18  1  0
 18 19  1  0
 19 20  1  0
 20 21  1  0
 21 22  1  0
 22 23  1  0
 23 24  1  0
 24 25  1  0
 25 26  1  0
 26 27  2  0
 26 28  1  0
 28 29  1  0
 29 30  1  1
 30 31  1  0
 32 31  1  6
 32 33  1  0
 33 34  1  0
 34 35  1  1
 35 36  1  0
 34 37  1  0
 37 38  1  1
 38 39  1  0
 39 40  1  0
 40 41  2  0
 41 42  1  0
 42 43  2  0
 43 44  1  0
 44 45  1  0
 44 46  1  0
 44 47  1  0
 43 48  1  0
 48 49  2  0
 37 50  1  0
 50 51  1  6
 50 52  1  0
 52 53  1  6
 29 54  1  0
 54 55  1  1
 54 56  1  0
 56 57  1  6
 56 58  1  0
 58 59  1  0
 59 60  1  0
 60 61  1  0
 61 62  1  0
 62 63  1  0
 63 64  1  0
 64 65  1  0
 65 66  1  0
 66 67  1  0
 67 68  1  0
 68 69  1  0
 69 70  1  0
 70 71  1  0
 52 32  1  0
 49 40  1  0
M  END
>  <shape_align_shape_tanimoto>  (2) 
0.23020524124252986

>  <shape_align_color_tanimoto>  (2) 
0.098405677462258076

>  <metric>  (2) 
color

>  <metric_score>  (2) 
0.098

>  <template_pid>  (2) 
6MJQ

>  <template_shape_score>  (2) 
0.230

>  <template_color_score>  (2) 
0.098

>  <template_combo_score>  (2) 
0.164

$$$$
6MJQ_combo_pose
     RDKit          3D

 71 72  0  0  0  0  0  0  0  0999 V2000
  -22.7314   40.8600    0.4416 C   0  0  0  0  0  0  0  0  0  0  0  0
  -23.4230   39.5877    0.0829 C   0  0  0  0  0  0  0  0  0  0  0  0
  -22.6491   38.8356   -1.0079 C   0  0  0  0  0  0  0  0  0  0  0  0
  -23.3836   37.5801   -1.3573 C   0  0  0  0  0  0  0  0  0  0  0  0
  -22.6976   36.7561   -2.4453 C   0  0  0  0  0  0  0  0  0  0  0  0
  -23.5968   35.5707   -2.6775 C   0  0  0  0  0  0  0  0  0  0  0  0
  -23.1193   34.6169   -3.7361 C   0  0  0  0  0  0  0  0  0  0  0  0
  -22.9865   35.3641   -5.0170 C   0  0  0  0  0  0  0  0  0  0  0  0
  -22.5714   34.5677   -6.2043 C   0  0  0  0  0  0  0  0  0  0  0  0
  -23.5622   33.4730   -6.5459 C   0  0  0  0  0  0  0  0  0  0  0  0
  -24.9348   34.0546   -6.8256 C   0  0  0  0  0  0  0  0  0  0  0  0
  -24.9249   35.0424   -7.9707 C   0  0  0  0  0  0  0  0  0  0  0  0
  -26.2596   35.6357   -8.2407 C   0  0  0  0  0  0  0  0  0  0  0  0
  -27.3460   34.6637   -8.6353 C   0  0  0  0  0  0  0  0  0  0  0  0
  -28.6051   35.5219   -8.8186 C   0  0  0  0  0  0  0  0  0  0  0  0
  -29.8107   34.7430   -9.2308 C   0  0  0  0  0  0  0  0  0  0  0  0
  -31.0007   35.6668   -9.3921 C   0  0  0  0  0  0  0  0  0  0  0  0
  -31.3030   36.3468   -8.1132 C   0  0  0  0  0  0  0  0  0  0  0  0
  -32.4739   37.2813   -8.0954 C   0  0  0  0  0  0  0  0  0  0  0  0
  -32.2558   38.3962   -9.0918 C   0  0  0  0  0  0  0  0  0  0  0  0
  -33.3443   39.4068   -9.0678 C   0  0  0  0  0  0  0  0  0  0  0  0
  -33.1880   40.5407  -10.0339 C   0  0  0  0  0  0  0  0  0  0  0  0
  -31.8881   41.2788   -9.8501 C   0  0  0  0  0  0  0  0  0  0  0  0
  -31.7547   42.4959  -10.7467 C   0  0  0  0  0  0  0  0  0  0  0  0
  -30.4003   43.0620  -10.5262 C   0  0  0  0  0  0  0  0  0  0  0  0
  -30.0732   44.3067  -11.2247 C   0  0  0  0  0  0  0  0  0  0  0  0
  -31.0559   45.0099  -11.6377 O   0  0  0  0  0  0  0  0  0  0  0  0
  -28.7267   44.6553  -11.3997 N   0  0  0  0  0  0  0  0  0  0  0  0
  -28.1885   45.8246  -12.0220 C   0  0  1  0  0  0  0  0  0  0  0  0
  -27.0431   46.4602  -11.1975 C   0  0  0  0  0  0  0  0  0  0  0  0
  -25.9443   45.6670  -11.2036 O   0  0  0  0  0  0  0  0  0  0  0  0
  -24.9376   46.1671  -10.3933 C   0  0  1  0  0  0  0  0  0  0  0  0
  -24.3138   45.1379   -9.8033 O   0  0  0  0  0  0  0  0  0  0  0  0
  -23.1470   44.6183  -10.2474 C   0  0  2  0  0  0  0  0  0  0  0  0
  -21.9800   44.9710   -9.3067 C   0  0  0  0  0  0  0  0  0  0  0  0
  -20.7787   44.4604   -9.7349 O   0  0  0  0  0  0  0  0  0  0  0  0
  -22.7474   44.7139  -11.6671 C   0  0  2  0  0  0  0  0  0  0  0  0
  -21.4230   45.0884  -11.8551 O   0  0  0  0  0  0  0  0  0  0  0  0
  -20.6989   44.4828  -12.8100 C   0  0  0  0  0  0  0  0  0  0  0  0
  -20.4898   43.0326  -12.7972 C   0  0  0  0  0  0  0  0  0  0  0  0
  -21.3108   42.1732  -13.5079 C   0  0  0  0  0  0  0  0  0  0  0  0
  -21.0839   40.7936  -13.5359 C   0  0  0  0  0  0  0  0  0  0  0  0
  -20.0096   40.2663  -12.8344 C   0  0  0  0  0  0  0  0  0  0  0  0
  -19.7440   38.7912  -12.8807 C   0  0  0  0  0  0  0  0  0  0  0  0
  -19.2276   38.2955  -11.7236 F   0  0  0  0  0  0  0  0  0  0  0  0
  -20.8897   38.1238  -13.2657 F   0  0  0  0  0  0  0  0  0  0  0  0
  -18.8341   38.5565  -13.9279 F   0  0  0  0  0  0  0  0  0  0  0  0
  -19.1969   41.1227  -12.1280 C   0  0  0  0  0  0  0  0  0  0  0  0
  -19.4058   42.4992  -12.0872 C   0  0  0  0  0  0  0  0  0  0  0  0
  -23.6418   45.7649  -12.3657 C   0  0  2  0  0  0  0  0  0  0  0  0
  -23.0795   46.2500  -13.5154 O   0  0  0  0  0  0  0  0  0  0  0  0
  -23.9693   46.8685  -11.4114 C   0  0  1  0  0  0  0  0  0  0  0  0
  -24.6425   47.8696  -12.0816 O   0  0  0  0  0  0  0  0  0  0  0  0
  -27.6173   45.5206  -13.3800 C   0  0  2  0  0  0  0  0  0  0  0  0
  -26.9230   46.6308  -13.9400 O   0  0  0  0  0  0  0  0  0  0  0  0
  -28.5209   45.0631  -14.4563 C   0  0  2  0  0  0  0  0  0  0  0  0
  -29.4539   44.1015  -14.0242 O   0  0  0  0  0  0  0  0  0  0  0  0
  -27.6583   44.1585  -15.4128 C   0  0  0  0  0  0  0  0  0  0  0  0
  -28.3965   43.7163  -16.6061 C   0  0  0  0  0  0  0  0  0  0  0  0
  -27.6375   42.7082  -17.4328 C   0  0  0  0  0  0  0  0  0  0  0  0
  -27.6215   41.3186  -16.9475 C   0  0  0  0  0  0  0  0  0  0  0  0
  -27.2424   40.9668  -15.5619 C   0  0  0  0  0  0  0  0  0  0  0  0
  -27.2902   39.4390  -15.3806 C   0  0  0  0  0  0  0  0  0  0  0  0
  -27.0725   39.0474  -13.9928 C   0  0  0  0  0  0  0  0  0  0  0  0
  -25.7802   39.4387  -13.3164 C   0  0  0  0  0  0  0  0  0  0  0  0
  -25.9305   38.8711  -11.9237 C   0  0  0  0  0  0  0  0  0  0  0  0
  -24.8267   39.0911  -10.9790 C   0  0  0  0  0  0  0  0  0  0  0  0
  -23.4909   38.5493  -11.3423 C   0  0  0  0  0  0  0  0  0  0  0  0
  -22.5091   38.8259  -10.2380 C   0  0  0  0  0  0  0  0  0  0  0  0
  -22.3332   40.2781   -9.9595 C   0  0  0  0  0  0  0  0  0  0  0  0
  -21.3003   40.4818   -8.8511 C   0  0  0  0  0  0  0  0  0  0  0  0
  1  2  1  0
  2  3  1  0
  3  4  1  0
  4  5  1  0
  5  6  1  0
  6  7  1  0
  7  8  1  0
  8  9  1  0
  9 10  1  0
 10 11  1  0
 11 12  1  0
 12 13  1  0
 13 14  1  0
 14 15  1  0
 15 16  1  0
 16 17  1  0
 17 18  1  0
 18 19  1  0
 19 20  1  0
 20 21  1  0
 21 22  1  0
 22 23  1  0
 23 24  1  0
 24 25  1  0
 25 26  1  0
 26 27  2  0
 26 28  1  0
 28 29  1  0
 29 30  1  1
 30 31  1  0
 32 31  1  6
 32 33  1  0
 33 34  1  0
 34 35  1  1
 35 36  1  0
 34 37  1  0
 37 38  1  1
 38 39  1  0
 39 40  1  0
 40 41  2  0
 41 42  1  0
 42 43  2  0
 43 44  1  0
 44 45  1  0
 44 46  1  0
 44 47  1  0
 43 48  1  0
 48 49  2  0
 37 50  1  0
 50 51  1  6
 50 52  1  0
 52 53  1  6
 29 54  1  0
 54 55  1  6
 54 56  1  0
 56 57  1  1
 56 58  1  0
 58 59  1  0
 59 60  1  0
 60 61  1  0
 61 62  1  0
 62 63  1  0
 63 64  1  0
 64 65  1  0
 65 66  1  0
 66 67  1  0
 67 68  1  0
 68 69  1  0
 69 70  1  0
 70 71  1  0
 52 32  1  0
 49 40  1  0
M  END
>  <shape_align_shape_tanimoto>  (3) 
0.25988992626836815

>  <shape_align_color_tanimoto>  (3) 
0.087962056753115442

>  <metric>  (3) 
combo

>  <metric_score>  (3) 
0.174

>  <template_pid>  (3) 
6MJQ

>  <template_shape_score>  (3) 
0.260

>  <template_color_score>  (3) 
0.088

>  <template_combo_score>  (3) 
0.174

$$$$
