2WOT_shape_pose
     RDKit          3D

 34 37  0  0  0  0  0  0  0  0999 V2000
    5.3498   -6.4637  -20.3809 C   0  0  0  0  0  0  0  0  0  0  0  0
    6.5173   -5.9810  -21.0613 O   0  0  0  0  0  0  0  0  0  0  0  0
    7.0187   -4.7300  -20.7747 C   0  0  0  0  0  0  0  0  0  0  0  0
    6.4082   -3.9256  -19.8334 C   0  0  0  0  0  0  0  0  0  0  0  0
    6.8758   -2.6605  -19.5116 C   0  0  0  0  0  0  0  0  0  0  0  0
    6.2406   -1.8185  -18.5651 N   0  0  0  0  0  0  0  0  0  0  0  0
    4.8415   -1.6562  -18.4287 C   0  0  0  0  0  0  0  0  0  0  0  0
    3.9124   -2.1449  -19.3137 C   0  0  0  0  0  0  0  0  0  0  0  0
    2.5312   -1.9783  -19.1156 C   0  0  0  0  0  0  0  0  0  0  0  0
    1.7100   -2.5069  -20.0535 O   0  0  0  0  0  0  0  0  0  0  0  0
    0.3748   -2.4240  -20.2785 C   0  0  0  0  0  0  0  0  0  0  0  0
   -0.3515   -3.6171  -20.1233 C   0  0  0  0  0  0  0  0  0  0  0  0
   -1.7074   -3.6891  -20.3195 C   0  0  0  0  0  0  0  0  0  0  0  0
   -2.4158   -4.9905  -20.1391 C   0  0  0  0  0  0  0  0  0  0  0  0
   -2.3759   -2.5427  -20.6826 C   0  0  0  0  0  0  0  0  0  0  0  0
   -3.8459   -2.5627  -20.9095 C   0  0  0  0  0  0  0  0  0  0  0  0
   -1.6876   -1.4060  -20.8315 N   0  0  0  0  0  0  0  0  0  0  0  0
   -0.3328   -1.3082  -20.6418 C   0  0  0  0  0  0  0  0  0  0  0  0
    0.2309   -0.0046  -20.9038 C   0  0  0  0  0  0  0  0  0  0  0  0
   -0.1953    0.6153  -22.0931 C   0  0  0  0  0  0  0  0  0  0  0  0
    0.2718    1.8731  -22.4444 C   0  0  0  0  0  0  0  0  0  0  0  0
    1.1639    2.5501  -21.6391 C   0  0  0  0  0  0  0  0  0  0  0  0
    1.5596    1.9013  -20.4722 C   0  0  0  0  0  0  0  0  0  0  0  0
    1.0866    0.6848  -20.1661 N   0  0  0  0  0  0  0  0  0  0  0  0
    2.1774   -1.2946  -17.9790 C   0  0  0  0  0  0  0  0  0  0  0  0
    3.0897   -0.7934  -17.0755 C   0  0  0  0  0  0  0  0  0  0  0  0
    4.3834   -0.9945  -17.3370 N   0  0  0  0  0  0  0  0  0  0  0  0
    8.0169   -2.2281  -20.1967 C   0  0  0  0  0  0  0  0  0  0  0  0
    8.6467   -3.0082  -21.1400 C   0  0  0  0  0  0  0  0  0  0  0  0
    9.7707   -2.6316  -21.8422 O   0  0  0  0  0  0  0  0  0  0  0  0
   10.4006   -1.3759  -21.6493 C   0  0  0  0  0  0  0  0  0  0  0  0
    8.1393   -4.2807  -21.4344 C   0  0  0  0  0  0  0  0  0  0  0  0
    8.7361   -5.1058  -22.3766 O   0  0  0  0  0  0  0  0  0  0  0  0
    8.3724   -5.0885  -23.7491 C   0  0  0  0  0  0  0  0  0  0  0  0
  1  2  1  0
  2  3  1  0
  3  4  2  0
  4  5  1  0
  5  6  1  0
  6  7  1  0
  7  8  2  0
  8  9  1  0
  9 10  1  0
 10 11  1  0
 11 12  2  0
 12 13  1  0
 13 14  1  0
 13 15  2  0
 15 16  1  0
 15 17  1  0
 17 18  2  0
 18 19  1  0
 19 20  2  0
 20 21  1  0
 21 22  2  0
 22 23  1  0
 23 24  2  0
  9 25  2  0
 25 26  1  0
 26 27  2  0
  5 28  2  0
 28 29  1  0
 29 30  1  0
 30 31  1  0
 29 32  2  0
 32 33  1  0
 33 34  1  0
 32  3  1  0
 27  7  1  0
 18 11  1  0
 24 19  1  0
M  END
>  <shape_align_shape_tanimoto>  (1) 
0.61648031550374738

>  <shape_align_color_tanimoto>  (1) 
0.042127960548709327

>  <metric>  (1) 
shape

>  <metric_score>  (1) 
0.616

>  <template_pid>  (1) 
2WOT

>  <template_shape_score>  (1) 
0.616

>  <template_color_score>  (1) 
0.042

>  <template_combo_score>  (1) 
0.329

$$$$
2WOT_color_pose
     RDKit          3D

 34 37  0  0  0  0  0  0  0  0999 V2000
   -0.9720    1.0730  -21.3342 C   0  0  0  0  0  0  0  0  0  0  0  0
   -1.2610   -0.2034  -21.0157 O   0  0  0  0  0  0  0  0  0  0  0  0
   -0.3314   -1.1710  -20.9527 C   0  0  0  0  0  0  0  0  0  0  0  0
    0.9581   -0.9590  -21.1991 C   0  0  0  0  0  0  0  0  0  0  0  0
    1.8784   -1.9345  -21.1325 C   0  0  0  0  0  0  0  0  0  0  0  0
    3.1591   -1.5949  -21.4161 N   0  0  0  0  0  0  0  0  0  0  0  0
    4.2638   -1.9650  -20.7310 C   0  0  0  0  0  0  0  0  0  0  0  0
    4.2522   -2.6554  -19.5891 C   0  0  0  0  0  0  0  0  0  0  0  0
    5.3415   -3.0107  -18.9295 C   0  0  0  0  0  0  0  0  0  0  0  0
    5.3167   -3.7058  -17.7771 O   0  0  0  0  0  0  0  0  0  0  0  0
    4.2127   -4.0427  -17.1202 C   0  0  0  0  0  0  0  0  0  0  0  0
    3.9758   -5.3626  -16.9738 C   0  0  0  0  0  0  0  0  0  0  0  0
    2.8746   -5.7227  -16.3182 C   0  0  0  0  0  0  0  0  0  0  0  0
    2.6374   -7.1321  -16.1713 C   0  0  0  0  0  0  0  0  0  0  0  0
    2.0623   -4.7997  -15.8399 C   0  0  0  0  0  0  0  0  0  0  0  0
    0.8846   -5.2458  -15.1384 C   0  0  0  0  0  0  0  0  0  0  0  0
    2.3006   -3.5266  -15.9867 N   0  0  0  0  0  0  0  0  0  0  0  0
    3.3717   -3.1259  -16.6240 C   0  0  0  0  0  0  0  0  0  0  0  0
    3.6160   -1.7364  -16.7656 C   0  0  0  0  0  0  0  0  0  0  0  0
    2.5677   -0.9751  -17.1523 C   0  0  0  0  0  0  0  0  0  0  0  0
    2.7253    0.3365  -17.3086 C   0  0  0  0  0  0  0  0  0  0  0  0
    3.9207    0.8785  -17.0792 C   0  0  0  0  0  0  0  0  0  0  0  0
    4.9266    0.0980  -16.7002 C   0  0  0  0  0  0  0  0  0  0  0  0
    4.7771   -1.2031  -16.5437 N   0  0  0  0  0  0  0  0  0  0  0  0
    6.5313   -2.6700  -19.4166 C   0  0  0  0  0  0  0  0  0  0  0  0
    6.5524   -1.9762  -20.5644 C   0  0  0  0  0  0  0  0  0  0  0  0
    5.4593   -1.6480  -21.1784 N   0  0  0  0  0  0  0  0  0  0  0  0
    1.4604   -3.1509  -20.8070 C   0  0  0  0  0  0  0  0  0  0  0  0
    0.1841   -3.4183  -20.5502 C   0  0  0  0  0  0  0  0  0  0  0  0
   -0.2796   -4.6203  -20.2196 O   0  0  0  0  0  0  0  0  0  0  0  0
    0.5262   -5.7167  -20.1082 C   0  0  0  0  0  0  0  0  0  0  0  0
   -0.6999   -2.4120  -20.6282 C   0  0  0  0  0  0  0  0  0  0  0  0
   -2.0072   -2.6566  -20.3698 O   0  0  0  0  0  0  0  0  0  0  0  0
   -2.5064   -2.5464  -19.1004 C   0  0  0  0  0  0  0  0  0  0  0  0
  1  2  1  0
  2  3  1  0
  3  4  2  0
  4  5  1  0
  5  6  1  0
  6  7  1  0
  7  8  2  0
  8  9  1  0
  9 10  1  0
 10 11  1  0
 11 12  2  0
 12 13  1  0
 13 14  1  0
 13 15  2  0
 15 16  1  0
 15 17  1  0
 17 18  2  0
 18 19  1  0
 19 20  2  0
 20 21  1  0
 21 22  2  0
 22 23  1  0
 23 24  2  0
  9 25  2  0
 25 26  1  0
 26 27  2  0
  5 28  2  0
 28 29  1  0
 29 30  1  0
 30 31  1  0
 29 32  2  0
 32 33  1  0
 33 34  1  0
 32  3  1  0
 27  7  1  0
 18 11  1  0
 24 19  1  0
M  END
>  <shape_align_shape_tanimoto>  (2) 
0.33375981367081731

>  <shape_align_color_tanimoto>  (2) 
0.1273966662887204

>  <metric>  (2) 
color

>  <metric_score>  (2) 
0.127

>  <template_pid>  (2) 
2WOT

>  <template_shape_score>  (2) 
0.334

>  <template_color_score>  (2) 
0.127

>  <template_combo_score>  (2) 
0.231

$$$$
2WOT_combo_pose
     RDKit          3D

 34 37  0  0  0  0  0  0  0  0999 V2000
    8.9251   -6.2922  -22.2071 C   0  0  0  0  0  0  0  0  0  0  0  0
    9.3198   -4.9393  -21.9424 O   0  0  0  0  0  0  0  0  0  0  0  0
    8.5211   -3.9610  -21.2959 C   0  0  0  0  0  0  0  0  0  0  0  0
    7.2127   -4.2018  -20.8239 C   0  0  0  0  0  0  0  0  0  0  0  0
    6.4316   -3.1934  -20.1756 C   0  0  0  0  0  0  0  0  0  0  0  0
    5.1063   -3.5585  -19.7141 N   0  0  0  0  0  0  0  0  0  0  0  0
    4.0968   -2.6168  -19.2530 C   0  0  0  0  0  0  0  0  0  0  0  0
    3.0312   -2.2517  -20.1311 C   0  0  0  0  0  0  0  0  0  0  0  0
    2.0162   -1.3638  -19.7877 C   0  0  0  0  0  0  0  0  0  0  0  0
    0.9244   -0.9414  -20.5643 O   0  0  0  0  0  0  0  0  0  0  0  0
   -0.4225   -1.2802  -20.4495 C   0  0  0  0  0  0  0  0  0  0  0  0
   -1.3215   -0.1923  -20.1597 C   0  0  0  0  0  0  0  0  0  0  0  0
   -2.7065   -0.3706  -20.0100 C   0  0  0  0  0  0  0  0  0  0  0  0
   -3.6782    0.7687  -19.7074 C   0  0  0  0  0  0  0  0  0  0  0  0
   -3.2440   -1.6542  -20.1461 C   0  0  0  0  0  0  0  0  0  0  0  0
   -4.7475   -1.8844  -19.9880 C   0  0  0  0  0  0  0  0  0  0  0  0
   -2.3986   -2.6926  -20.4223 N   0  0  0  0  0  0  0  0  0  0  0  0
   -1.0113   -2.5408  -20.5776 C   0  0  0  0  0  0  0  0  0  0  0  0
   -0.2772   -3.7992  -20.8807 C   0  0  0  0  0  0  0  0  0  0  0  0
    0.6306   -3.9681  -21.9400 C   0  0  0  0  0  0  0  0  0  0  0  0
    1.2985   -5.2172  -22.1555 C   0  0  0  0  0  0  0  0  0  0  0  0
    1.0094   -6.2780  -21.2590 C   0  0  0  0  0  0  0  0  0  0  0  0
    0.0837   -6.1036  -20.1799 C   0  0  0  0  0  0  0  0  0  0  0  0
   -0.5213   -4.8766  -20.0325 N   0  0  0  0  0  0  0  0  0  0  0  0
    2.0873   -0.8040  -18.4590 C   0  0  0  0  0  0  0  0  0  0  0  0
    3.1403   -1.1559  -17.5752 C   0  0  0  0  0  0  0  0  0  0  0  0
    4.1047   -2.0454  -17.9977 N   0  0  0  0  0  0  0  0  0  0  0  0
    7.0082   -1.9188  -20.0125 C   0  0  0  0  0  0  0  0  0  0  0  0
    8.3117   -1.6286  -20.4663 C   0  0  0  0  0  0  0  0  0  0  0  0
    8.9416   -0.3645  -20.3280 O   0  0  0  0  0  0  0  0  0  0  0  0
    8.3198    0.7847  -19.7007 C   0  0  0  0  0  0  0  0  0  0  0  0
    9.0558   -2.6690  -21.1089 C   0  0  0  0  0  0  0  0  0  0  0  0
   10.3715   -2.3935  -21.5720 O   0  0  0  0  0  0  0  0  0  0  0  0
   10.6622   -1.8954  -22.8931 C   0  0  0  0  0  0  0  0  0  0  0  0
  1  2  1  0
  2  3  1  0
  3  4  2  0
  4  5  1  0
  5  6  1  0
  6  7  1  0
  7  8  2  0
  8  9  1  0
  9 10  1  0
 10 11  1  0
 11 12  2  0
 12 13  1  0
 13 14  1  0
 13 15  2  0
 15 16  1  0
 15 17  1  0
 17 18  2  0
 18 19  1  0
 19 20  2  0
 20 21  1  0
 21 22  2  0
 22 23  1  0
 23 24  2  0
  9 25  2  0
 25 26  1  0
 26 27  2  0
  5 28  2  0
 28 29  1  0
 29 30  1  0
 30 31  1  0
 29 32  2  0
 32 33  1  0
 33 34  1  0
 32  3  1  0
 27  7  1  0
 18 11  1  0
 24 19  1  0
M  END
>  <shape_align_shape_tanimoto>  (3) 
0.55785949439194038

>  <shape_align_color_tanimoto>  (3) 
0.1193657115016428

>  <metric>  (3) 
combo

>  <metric_score>  (3) 
0.339

>  <template_pid>  (3) 
2WOT

>  <template_shape_score>  (3) 
0.558

>  <template_color_score>  (3) 
0.119

>  <template_combo_score>  (3) 
0.339

$$$$
