3QQK_shape_pose
     RDKit          3D

 18 19  0  0  0  0  0  0  0  0999 V2000
   88.2990  118.1521  -45.2498 C   0  0  0  0  0  0  0  0  0  0  0  0
   89.2987  118.8844  -45.7825 C   0  0  0  0  0  0  0  0  0  0  0  0
   90.3784  118.1892  -46.4776 C   0  0  0  0  0  0  0  0  0  0  0  0
   90.4695  118.6119  -47.8585 N   0  0  0  0  0  0  0  0  0  0  0  0
   91.4503  118.0814  -48.7641 C   0  0  0  0  0  0  0  0  0  0  0  0
   91.8584  118.1336  -49.8925 N   0  0  0  0  0  0  0  0  0  0  0  0
   92.8436  117.4644  -50.4257 C   0  0  0  0  0  0  0  0  0  0  0  0
   93.2206  117.6427  -51.8268 N   0  0  0  0  0  0  0  0  0  0  0  0
   93.4979  116.6020  -49.6282 C   0  0  0  0  0  0  0  0  0  0  0  0
   94.6458  115.7162  -49.9270 C   0  0  0  0  0  0  0  0  0  0  0  0
   95.0904  115.7912  -51.0966 O   0  0  0  0  0  0  0  0  0  0  0  0
   95.2319  114.8208  -48.9593 C   0  0  0  0  0  0  0  0  0  0  0  0
   96.5697  114.4935  -49.1193 C   0  0  0  0  0  0  0  0  0  0  0  0
   97.2258  113.6380  -48.2513 C   0  0  0  0  0  0  0  0  0  0  0  0
   96.5642  113.0808  -47.1929 C   0  0  0  0  0  0  0  0  0  0  0  0
   95.2124  113.3881  -46.9995 C   0  0  0  0  0  0  0  0  0  0  0  0
   94.5788  114.2555  -47.8941 C   0  0  0  0  0  0  0  0  0  0  0  0
   92.6598  116.7791  -48.0943 S   0  0  0  0  0  0  0  0  0  0  0  0
  1  2  2  0
  2  3  1  0
  3  4  1  0
  4  5  1  0
  5  6  2  0
  6  7  1  0
  7  8  1  0
  7  9  2  0
  9 10  1  0
 10 11  2  0
 10 12  1  0
 12 13  2  0
 13 14  1  0
 14 15  2  0
 15 16  1  0
 16 17  2  0
  9 18  1  0
 18  5  1  0
 17 12  1  0
M  END
>  <shape_align_shape_tanimoto>  (1) 
0.76546075764832011

>  <shape_align_color_tanimoto>  (1) 
0.14667155223817438

>  <metric>  (1) 
shape

>  <metric_score>  (1) 
0.765

>  <template_pid>  (1) 
3QQK

>  <template_shape_score>  (1) 
0.765

>  <template_color_score>  (1) 
0.147

>  <template_combo_score>  (1) 
0.456

$$$$
3QQK_color_pose
     RDKit          3D

 18 19  0  0  0  0  0  0  0  0999 V2000
   93.8850  113.6157  -46.6910 C   0  0  0  0  0  0  0  0  0  0  0  0
   94.7382  113.2554  -47.6740 C   0  0  0  0  0  0  0  0  0  0  0  0
   95.9644  114.0491  -47.9499 C   0  0  0  0  0  0  0  0  0  0  0  0
   96.0569  114.5964  -49.2563 N   0  0  0  0  0  0  0  0  0  0  0  0
   95.0720  115.5626  -49.7774 C   0  0  0  0  0  0  0  0  0  0  0  0
   94.7657  116.1853  -50.6885 N   0  0  0  0  0  0  0  0  0  0  0  0
   93.7443  117.0269  -50.8240 C   0  0  0  0  0  0  0  0  0  0  0  0
   93.5240  117.7347  -52.0751 N   0  0  0  0  0  0  0  0  0  0  0  0
   92.9704  117.1650  -49.7539 C   0  0  0  0  0  0  0  0  0  0  0  0
   91.7334  117.9630  -49.5086 C   0  0  0  0  0  0  0  0  0  0  0  0
   91.2870  118.5491  -50.5233 O   0  0  0  0  0  0  0  0  0  0  0  0
   91.1260  118.0262  -48.1878 C   0  0  0  0  0  0  0  0  0  0  0  0
   91.8335  117.8843  -47.0192 C   0  0  0  0  0  0  0  0  0  0  0  0
   91.2575  117.8979  -45.7556 C   0  0  0  0  0  0  0  0  0  0  0  0
   89.8949  118.0660  -45.6918 C   0  0  0  0  0  0  0  0  0  0  0  0
   89.1345  118.2149  -46.8461 C   0  0  0  0  0  0  0  0  0  0  0  0
   89.7464  118.1967  -48.1048 C   0  0  0  0  0  0  0  0  0  0  0  0
   93.7155  116.0817  -48.5532 S   0  0  0  0  0  0  0  0  0  0  0  0
  1  2  2  0
  2  3  1  0
  3  4  1  0
  4  5  1  0
  5  6  2  0
  6  7  1  0
  7  8  1  0
  7  9  2  0
  9 10  1  0
 10 11  2  0
 10 12  1  0
 12 13  2  0
 13 14  1  0
 14 15  2  0
 15 16  1  0
 16 17  2  0
  9 18  1  0
 18  5  1  0
 17 12  1  0
M  END
>  <shape_align_shape_tanimoto>  (2) 
0.63562552509279679

>  <shape_align_color_tanimoto>  (2) 
0.24093086661976104

>  <metric>  (2) 
color

>  <metric_score>  (2) 
0.241

>  <template_pid>  (2) 
3QQK

>  <template_shape_score>  (2) 
0.636

>  <template_color_score>  (2) 
0.241

>  <template_combo_score>  (2) 
0.438

$$$$
3QQK_combo_pose
     RDKit          3D

 18 19  0  0  0  0  0  0  0  0999 V2000
   88.2990  118.1521  -45.2498 C   0  0  0  0  0  0  0  0  0  0  0  0
   89.2987  118.8844  -45.7825 C   0  0  0  0  0  0  0  0  0  0  0  0
   90.3784  118.1892  -46.4776 C   0  0  0  0  0  0  0  0  0  0  0  0
   90.4695  118.6119  -47.8585 N   0  0  0  0  0  0  0  0  0  0  0  0
   91.4503  118.0814  -48.7641 C   0  0  0  0  0  0  0  0  0  0  0  0
   91.8584  118.1336  -49.8925 N   0  0  0  0  0  0  0  0  0  0  0  0
   92.8436  117.4644  -50.4257 C   0  0  0  0  0  0  0  0  0  0  0  0
   93.2206  117.6427  -51.8268 N   0  0  0  0  0  0  0  0  0  0  0  0
   93.4979  116.6020  -49.6282 C   0  0  0  0  0  0  0  0  0  0  0  0
   94.6458  115.7162  -49.9270 C   0  0  0  0  0  0  0  0  0  0  0  0
   95.0904  115.7912  -51.0966 O   0  0  0  0  0  0  0  0  0  0  0  0
   95.2319  114.8208  -48.9593 C   0  0  0  0  0  0  0  0  0  0  0  0
   96.5697  114.4935  -49.1193 C   0  0  0  0  0  0  0  0  0  0  0  0
   97.2258  113.6380  -48.2513 C   0  0  0  0  0  0  0  0  0  0  0  0
   96.5642  113.0808  -47.1929 C   0  0  0  0  0  0  0  0  0  0  0  0
   95.2124  113.3881  -46.9995 C   0  0  0  0  0  0  0  0  0  0  0  0
   94.5788  114.2555  -47.8941 C   0  0  0  0  0  0  0  0  0  0  0  0
   92.6598  116.7791  -48.0943 S   0  0  0  0  0  0  0  0  0  0  0  0
  1  2  2  0
  2  3  1  0
  3  4  1  0
  4  5  1  0
  5  6  2  0
  6  7  1  0
  7  8  1  0
  7  9  2  0
  9 10  1  0
 10 11  2  0
 10 12  1  0
 12 13  2  0
 13 14  1  0
 14 15  2  0
 15 16  1  0
 16 17  2  0
  9 18  1  0
 18  5  1  0
 17 12  1  0
M  END
>  <shape_align_shape_tanimoto>  (3) 
0.76546075764832011

>  <shape_align_color_tanimoto>  (3) 
0.14667155223817438

>  <metric>  (3) 
combo

>  <metric_score>  (3) 
0.456

>  <template_pid>  (3) 
3QQK

>  <template_shape_score>  (3) 
0.765

>  <template_color_score>  (3) 
0.147

>  <template_combo_score>  (3) 
0.456

$$$$
