5EHV_shape_pose
     RDKit          3D

 23 24  0  0  0  0  0  0  0  0999 V2000
   -5.1554   -1.9128   16.5058 O   0  0  0  0  0  0  0  0  0  0  0  0
   -5.7426   -0.8090   16.3127 C   0  0  0  0  0  0  0  0  0  0  0  0
   -7.0885   -0.7640   16.6575 O   0  0  0  0  0  0  0  0  0  0  0  0
   -5.0507    0.3502   15.7607 C   0  0  0  0  0  0  0  0  0  0  0  0
   -5.6702    1.4890   15.5651 C   0  0  0  0  0  0  0  0  0  0  0  0
   -5.0459    2.6873   15.0188 C   0  0  0  0  0  0  0  0  0  0  0  0
   -3.7207    2.7001   14.6612 C   0  0  0  0  0  0  0  0  0  0  0  0
   -3.1512    3.8449   14.1466 C   0  0  0  0  0  0  0  0  0  0  0  0
   -3.9457    4.9660   14.0034 C   0  0  0  0  0  0  0  0  0  0  0  0
   -5.2718    5.0147   14.3414 C   0  0  0  0  0  0  0  0  0  0  0  0
   -6.1243    6.0526   14.2387 O   0  0  0  0  0  0  0  0  0  0  0  0
   -6.0658    7.3376   13.8062 C   0  0  0  0  0  0  0  0  0  0  0  0
   -5.7193    7.5841   12.3908 C   0  0  0  0  0  0  0  0  0  0  0  0
   -6.7439    7.5219   11.4384 C   0  0  0  0  0  0  0  0  0  0  0  0
   -6.4939    7.7619   10.1142 C   0  0  0  0  0  0  0  0  0  0  0  0
   -5.2260    8.0737    9.6666 C   0  0  0  0  0  0  0  0  0  0  0  0
   -4.1927    8.1422   10.5887 C   0  0  0  0  0  0  0  0  0  0  0  0
   -2.8288    8.4714   10.1505 C   0  0  0  0  0  0  0  0  0  0  0  0
   -2.6042    9.9430   10.1888 C   0  0  0  0  0  0  0  0  0  0  0  0
   -3.5330   10.7214   10.5654 O   0  0  0  0  0  0  0  0  0  0  0  0
   -1.3866   10.4748    9.8161 O   0  0  0  0  0  0  0  0  0  0  0  0
   -4.4746    7.8959   11.9144 C   0  0  0  0  0  0  0  0  0  0  0  0
   -5.7991    3.8156   14.8621 C   0  0  0  0  0  0  0  0  0  0  0  0
  1  2  2  0
  2  3  1  0
  2  4  1  0
  4  5  2  0
  5  6  1  0
  6  7  2  0
  7  8  1  0
  8  9  2  0
  9 10  1  0
 10 11  1  0
 11 12  1  0
 12 13  1  0
 13 14  2  0
 14 15  1  0
 15 16  2  0
 16 17  1  0
 17 18  1  0
 18 19  1  0
 19 20  2  0
 19 21  1  0
 17 22  2  0
 10 23  2  0
 23  6  1  0
 22 13  1  0
M  CHG  2   3  -1  21  -1
M  END
>  <shape_align_shape_tanimoto>  (1) 
0.67512027239517547

>  <shape_align_color_tanimoto>  (1) 
0.027521185532159965

>  <metric>  (1) 
shape

>  <metric_score>  (1) 
0.675

>  <template_pid>  (1) 
5EHV

>  <template_shape_score>  (1) 
0.675

>  <template_color_score>  (1) 
0.028

>  <template_combo_score>  (1) 
0.351

$$$$
5EHV_color_pose
     RDKit          3D

 23 24  0  0  0  0  0  0  0  0999 V2000
   -0.3170    8.9757    9.6899 O   0  0  0  0  0  0  0  0  0  0  0  0
   -0.5077    8.5075   10.8621 C   0  0  0  0  0  0  0  0  0  0  0  0
    0.5819    8.3233   11.6879 O   0  0  0  0  0  0  0  0  0  0  0  0
   -1.8741    8.2053   11.2263 C   0  0  0  0  0  0  0  0  0  0  0  0
   -2.8675    8.3975   10.4079 C   0  0  0  0  0  0  0  0  0  0  0  0
   -4.2679    8.1164   10.7062 C   0  0  0  0  0  0  0  0  0  0  0  0
   -5.2090    8.3388    9.7290 C   0  0  0  0  0  0  0  0  0  0  0  0
   -6.5533    8.0865    9.9420 C   0  0  0  0  0  0  0  0  0  0  0  0
   -6.9339    7.6032   11.1636 C   0  0  0  0  0  0  0  0  0  0  0  0
   -6.0243    7.3539   12.2074 C   0  0  0  0  0  0  0  0  0  0  0  0
   -6.5367    6.8822   13.3518 O   0  0  0  0  0  0  0  0  0  0  0  0
   -6.1201    6.5046   14.5873 C   0  0  0  0  0  0  0  0  0  0  0  0
   -5.1603    5.3823   14.5859 C   0  0  0  0  0  0  0  0  0  0  0  0
   -3.7938    5.5125   14.6658 C   0  0  0  0  0  0  0  0  0  0  0  0
   -2.9232    4.4408   14.6630 C   0  0  0  0  0  0  0  0  0  0  0  0
   -3.4469    3.1593   14.5750 C   0  0  0  0  0  0  0  0  0  0  0  0
   -4.8106    2.9947   14.4935 C   0  0  0  0  0  0  0  0  0  0  0  0
   -5.4576    1.6639   14.3842 C   0  0  0  0  0  0  0  0  0  0  0  0
   -5.6828    1.0166   15.6954 C   0  0  0  0  0  0  0  0  0  0  0  0
   -4.6984    0.7010   16.4423 O   0  0  0  0  0  0  0  0  0  0  0  0
   -6.9988    0.7476   16.1224 O   0  0  0  0  0  0  0  0  0  0  0  0
   -5.6653    4.0913   14.4983 C   0  0  0  0  0  0  0  0  0  0  0  0
   -4.7021    7.6301   11.9196 C   0  0  0  0  0  0  0  0  0  0  0  0
  1  2  2  0
  2  3  1  0
  2  4  1  0
  4  5  2  0
  5  6  1  0
  6  7  2  0
  7  8  1  0
  8  9  2  0
  9 10  1  0
 10 11  1  0
 11 12  1  0
 12 13  1  0
 13 14  2  0
 14 15  1  0
 15 16  2  0
 16 17  1  0
 17 18  1  0
 18 19  1  0
 19 20  2  0
 19 21  1  0
 17 22  2  0
 10 23  2  0
 23  6  1  0
 22 13  1  0
M  CHG  2   3  -1  21  -1
M  END
>  <shape_align_shape_tanimoto>  (2) 
0.59356532427844988

>  <shape_align_color_tanimoto>  (2) 
0.078844981246948595

>  <metric>  (2) 
color

>  <metric_score>  (2) 
0.079

>  <template_pid>  (2) 
5EHV

>  <template_shape_score>  (2) 
0.594

>  <template_color_score>  (2) 
0.079

>  <template_combo_score>  (2) 
0.336

$$$$
5EHV_combo_pose
     RDKit          3D

 23 24  0  0  0  0  0  0  0  0999 V2000
   -5.0226   -1.5301   16.5255 O   0  0  0  0  0  0  0  0  0  0  0  0
   -5.6428   -0.4661   16.2548 C   0  0  0  0  0  0  0  0  0  0  0  0
   -7.0111   -0.4461   16.4991 O   0  0  0  0  0  0  0  0  0  0  0  0
   -4.9825    0.7154   15.7063 C   0  0  0  0  0  0  0  0  0  0  0  0
   -5.6278    1.8234   15.4243 C   0  0  0  0  0  0  0  0  0  0  0  0
   -5.0080    3.0228   14.8767 C   0  0  0  0  0  0  0  0  0  0  0  0
   -3.6597    3.0772   14.6092 C   0  0  0  0  0  0  0  0  0  0  0  0
   -3.1123    4.2258   14.0933 C   0  0  0  0  0  0  0  0  0  0  0  0
   -3.9379    5.3141   13.8517 C   0  0  0  0  0  0  0  0  0  0  0  0
   -5.2853    5.3124   14.0998 C   0  0  0  0  0  0  0  0  0  0  0  0
   -6.1681    6.3156   13.8984 O   0  0  0  0  0  0  0  0  0  0  0  0
   -6.1374    7.5866   13.4258 C   0  0  0  0  0  0  0  0  0  0  0  0
   -5.7075    7.8229   12.0475 C   0  0  0  0  0  0  0  0  0  0  0  0
   -6.6555    7.7048   11.0444 C   0  0  0  0  0  0  0  0  0  0  0  0
   -6.3712    7.9215    9.7130 C   0  0  0  0  0  0  0  0  0  0  0  0
   -5.0940    8.2711    9.3490 C   0  0  0  0  0  0  0  0  0  0  0  0
   -4.1344    8.3946   10.3308 C   0  0  0  0  0  0  0  0  0  0  0  0
   -2.7411    8.7774    9.9211 C   0  0  0  0  0  0  0  0  0  0  0  0
   -2.0232    7.5024    9.6550 C   0  0  0  0  0  0  0  0  0  0  0  0
   -2.6151    6.3961    9.7938 O   0  0  0  0  0  0  0  0  0  0  0  0
   -0.7059    7.5699    9.2567 O   0  0  0  0  0  0  0  0  0  0  0  0
   -4.4401    8.1744   11.6486 C   0  0  0  0  0  0  0  0  0  0  0  0
   -5.8006    4.1157   14.6273 C   0  0  0  0  0  0  0  0  0  0  0  0
  1  2  2  0
  2  3  1  0
  2  4  1  0
  4  5  2  0
  5  6  1  0
  6  7  2  0
  7  8  1  0
  8  9  2  0
  9 10  1  0
 10 11  1  0
 11 12  1  0
 12 13  1  0
 13 14  2  0
 14 15  1  0
 15 16  2  0
 16 17  1  0
 17 18  1  0
 18 19  1  0
 19 20  2  0
 19 21  1  0
 17 22  2  0
 10 23  2  0
 23  6  1  0
 22 13  1  0
M  CHG  2   3  -1  21  -1
M  END
>  <shape_align_shape_tanimoto>  (3) 
0.67250352003482783

>  <shape_align_color_tanimoto>  (3) 
0.054609248474386363

>  <metric>  (3) 
combo

>  <metric_score>  (3) 
0.364

>  <template_pid>  (3) 
5EHV

>  <template_shape_score>  (3) 
0.673

>  <template_color_score>  (3) 
0.055

>  <template_combo_score>  (3) 
0.364

$$$$
