3NPA_shape_pose
     RDKit          3D

 26 27  0  0  0  0  0  0  0  0999 V2000
   42.2029   21.8341   29.1491 O   0  0  0  0  0  0  0  0  0  0  0  0
   40.9638   21.6870   29.1284 N   0  0  0  0  0  0  0  0  0  0  0  0
   40.4624   20.5417   28.5635 O   0  0  0  0  0  0  0  0  0  0  0  0
   40.1537   22.7104   29.6888 C   0  0  0  0  0  0  0  0  0  0  0  0
   40.6846   23.5038   30.7024 C   0  0  0  0  0  0  0  0  0  0  0  0
   39.9281   24.5184   31.2801 C   0  0  0  0  0  0  0  0  0  0  0  0
   38.6443   24.7306   30.8378 C   0  0  0  0  0  0  0  0  0  0  0  0
   38.1399   23.9375   29.8378 C   0  0  0  0  0  0  0  0  0  0  0  0
   38.8845   22.9137   29.2454 C   0  0  0  0  0  0  0  0  0  0  0  0
   38.2589   22.1049   28.1705 C   0  0  0  0  0  0  0  0  0  0  0  0
   36.8878   22.5678   27.9083 N   0  0  0  0  0  0  0  0  0  0  0  0
   35.9860   22.1789   28.6777 N   0  0  0  0  0  0  0  0  0  0  0  0
   34.5993   22.5297   28.5721 C   0  0  0  0  0  0  0  0  0  0  0  0
   33.7789   22.4015   27.1605 S   0  0  0  0  0  0  0  0  0  0  0  0
   33.8664   23.0135   29.7161 N   0  0  0  0  0  0  0  0  0  0  0  0
   32.4885   23.3774   29.6732 C   0  0  2  0  0  0  0  0  0  0  0  0
   32.2925   24.4689   28.8584 O   0  0  0  0  0  0  0  0  0  0  0  0
   31.0190   24.9221   28.7480 C   0  0  2  0  0  0  0  0  0  0  0  0
   31.0778   26.4485   28.7358 C   0  0  0  0  0  0  0  0  0  0  0  0
   31.8300   26.9361   27.6758 O   0  0  0  0  0  0  0  0  0  0  0  0
   30.0016   24.5003   29.7240 C   0  0  1  0  0  0  0  0  0  0  0  0
   29.0371   23.6988   29.0914 O   0  0  0  0  0  0  0  0  0  0  0  0
   30.4927   23.7692   30.9301 C   0  0  2  0  0  0  0  0  0  0  0  0
   29.8851   24.1855   32.1138 O   0  0  0  0  0  0  0  0  0  0  0  0
   32.0198   23.8494   31.0548 C   0  0  1  0  0  0  0  0  0  0  0  0
   32.4599   23.0490   32.0740 O   0  0  0  0  0  0  0  0  0  0  0  0
  1  2  2  0
  2  3  1  0
  2  4  1  0
  4  5  2  0
  5  6  1  0
  6  7  2  0
  7  8  1  0
  8  9  2  0
  9 10  1  0
 10 11  1  0
 11 12  2  0
 12 13  1  0
 13 14  2  0
 13 15  1  0
 16 15  1  1
 16 17  1  0
 17 18  1  0
 18 19  1  1
 19 20  1  0
 18 21  1  0
 21 22  1  6
 21 23  1  0
 23 24  1  1
 23 25  1  0
 25 26  1  1
  9  4  1  0
 25 16  1  0
M  CHG  2   2   1   3  -1
M  END
>  <shape_align_shape_tanimoto>  (1) 
0.76358363685576924

>  <shape_align_color_tanimoto>  (1) 
0.053629277405911523

>  <metric>  (1) 
shape

>  <metric_score>  (1) 
0.764

>  <template_pid>  (1) 
3NPA

>  <template_shape_score>  (1) 
0.764

>  <template_color_score>  (1) 
0.054

>  <template_combo_score>  (1) 
0.409

$$$$
3NPA_color_pose
     RDKit          3D

 26 27  0  0  0  0  0  0  0  0999 V2000
   35.8129   21.1713   28.8684 O   0  0  0  0  0  0  0  0  0  0  0  0
   34.6323   21.4966   29.0879 N   0  0  0  0  0  0  0  0  0  0  0  0
   33.7974   20.5126   29.5866 O   0  0  0  0  0  0  0  0  0  0  0  0
   34.1044   22.7950   28.8621 C   0  0  0  0  0  0  0  0  0  0  0  0
   33.0930   23.2094   29.7069 C   0  0  0  0  0  0  0  0  0  0  0  0
   32.4793   24.4343   29.6209 C   0  0  0  0  0  0  0  0  0  0  0  0
   32.9102   25.2866   28.6285 C   0  0  0  0  0  0  0  0  0  0  0  0
   33.9052   24.8933   27.7883 C   0  0  0  0  0  0  0  0  0  0  0  0
   34.5326   23.6424   27.8753 C   0  0  0  0  0  0  0  0  0  0  0  0
   35.6032   23.2395   26.9525 C   0  0  0  0  0  0  0  0  0  0  0  0
   35.1988   22.3257   25.9319 N   0  0  0  0  0  0  0  0  0  0  0  0
   35.9474   22.2774   24.9116 N   0  0  0  0  0  0  0  0  0  0  0  0
   35.8008   21.4886   23.7747 C   0  0  0  0  0  0  0  0  0  0  0  0
   37.1775   21.0814   22.9517 S   0  0  0  0  0  0  0  0  0  0  0  0
   34.5618   21.0064   23.2666 N   0  0  0  0  0  0  0  0  0  0  0  0
   33.2877   21.2891   23.9013 C   0  0  2  0  0  0  0  0  0  0  0  0
   33.2326   20.7023   25.1528 O   0  0  0  0  0  0  0  0  0  0  0  0
   32.0763   21.0855   25.7917 C   0  0  2  0  0  0  0  0  0  0  0  0
   31.3591   19.8669   26.3645 C   0  0  0  0  0  0  0  0  0  0  0  0
   32.1938   19.2440   27.2637 O   0  0  0  0  0  0  0  0  0  0  0  0
   31.1476   21.9673   25.0280 C   0  0  1  0  0  0  0  0  0  0  0  0
   31.4569   23.3297   25.1093 O   0  0  0  0  0  0  0  0  0  0  0  0
   30.9112   21.4971   23.6117 C   0  0  2  0  0  0  0  0  0  0  0  0
   29.8107   20.6528   23.6109 O   0  0  0  0  0  0  0  0  0  0  0  0
   32.1293   20.7259   23.0986 C   0  0  1  0  0  0  0  0  0  0  0  0
   32.3749   20.9395   21.7619 O   0  0  0  0  0  0  0  0  0  0  0  0
  1  2  2  0
  2  3  1  0
  2  4  1  0
  4  5  2  0
  5  6  1  0
  6  7  2  0
  7  8  1  0
  8  9  2  0
  9 10  1  0
 10 11  1  0
 11 12  2  0
 12 13  1  0
 13 14  2  0
 13 15  1  0
 16 15  1  6
 16 17  1  0
 17 18  1  0
 18 19  1  6
 19 20  1  0
 18 21  1  0
 21 22  1  6
 21 23  1  0
 23 24  1  1
 23 25  1  0
 25 26  1  6
  9  4  1  0
 25 16  1  0
M  CHG  2   2   1   3  -1
M  END
>  <shape_align_shape_tanimoto>  (2) 
0.48333899713752665

>  <shape_align_color_tanimoto>  (2) 
0.120457310159632

>  <metric>  (2) 
color

>  <metric_score>  (2) 
0.120

>  <template_pid>  (2) 
3NPA

>  <template_shape_score>  (2) 
0.483

>  <template_color_score>  (2) 
0.120

>  <template_combo_score>  (2) 
0.302

$$$$
3NPA_combo_pose
     RDKit          3D

 26 27  0  0  0  0  0  0  0  0999 V2000
   42.2029   21.8341   29.1491 O   0  0  0  0  0  0  0  0  0  0  0  0
   40.9638   21.6870   29.1284 N   0  0  0  0  0  0  0  0  0  0  0  0
   40.4624   20.5417   28.5635 O   0  0  0  0  0  0  0  0  0  0  0  0
   40.1537   22.7104   29.6888 C   0  0  0  0  0  0  0  0  0  0  0  0
   40.6846   23.5038   30.7024 C   0  0  0  0  0  0  0  0  0  0  0  0
   39.9281   24.5184   31.2801 C   0  0  0  0  0  0  0  0  0  0  0  0
   38.6443   24.7306   30.8378 C   0  0  0  0  0  0  0  0  0  0  0  0
   38.1399   23.9375   29.8378 C   0  0  0  0  0  0  0  0  0  0  0  0
   38.8845   22.9137   29.2454 C   0  0  0  0  0  0  0  0  0  0  0  0
   38.2589   22.1049   28.1705 C   0  0  0  0  0  0  0  0  0  0  0  0
   36.8878   22.5678   27.9083 N   0  0  0  0  0  0  0  0  0  0  0  0
   35.9860   22.1789   28.6777 N   0  0  0  0  0  0  0  0  0  0  0  0
   34.5993   22.5297   28.5721 C   0  0  0  0  0  0  0  0  0  0  0  0
   33.7789   22.4015   27.1605 S   0  0  0  0  0  0  0  0  0  0  0  0
   33.8664   23.0135   29.7161 N   0  0  0  0  0  0  0  0  0  0  0  0
   32.4885   23.3774   29.6732 C   0  0  2  0  0  0  0  0  0  0  0  0
   32.2925   24.4689   28.8584 O   0  0  0  0  0  0  0  0  0  0  0  0
   31.0190   24.9221   28.7480 C   0  0  2  0  0  0  0  0  0  0  0  0
   31.0778   26.4485   28.7358 C   0  0  0  0  0  0  0  0  0  0  0  0
   31.8300   26.9361   27.6758 O   0  0  0  0  0  0  0  0  0  0  0  0
   30.0016   24.5003   29.7240 C   0  0  1  0  0  0  0  0  0  0  0  0
   29.0371   23.6988   29.0914 O   0  0  0  0  0  0  0  0  0  0  0  0
   30.4927   23.7692   30.9301 C   0  0  2  0  0  0  0  0  0  0  0  0
   29.8851   24.1855   32.1138 O   0  0  0  0  0  0  0  0  0  0  0  0
   32.0198   23.8494   31.0548 C   0  0  1  0  0  0  0  0  0  0  0  0
   32.4599   23.0490   32.0740 O   0  0  0  0  0  0  0  0  0  0  0  0
  1  2  2  0
  2  3  1  0
  2  4  1  0
  4  5  2  0
  5  6  1  0
  6  7  2  0
  7  8  1  0
  8  9  2  0
  9 10  1  0
 10 11  1  0
 11 12  2  0
 12 13  1  0
 13 14  2  0
 13 15  1  0
 16 15  1  1
 16 17  1  0
 17 18  1  0
 18 19  1  1
 19 20  1  0
 18 21  1  0
 21 22  1  6
 21 23  1  0
 23 24  1  1
 23 25  1  0
 25 26  1  1
  9  4  1  0
 25 16  1  0
M  CHG  2   2   1   3  -1
M  END
>  <shape_align_shape_tanimoto>  (3) 
0.76358363685576924

>  <shape_align_color_tanimoto>  (3) 
0.053629277405911523

>  <metric>  (3) 
combo

>  <metric_score>  (3) 
0.409

>  <template_pid>  (3) 
3NPA

>  <template_shape_score>  (3) 
0.764

>  <template_color_score>  (3) 
0.054

>  <template_combo_score>  (3) 
0.409

$$$$
