1FZJ_shape_pose
     RDKit          3D

 68 69  0  0  0  0  0  0  0  0999 V2000
   -4.2843    1.6899   26.2478 C   0  0  0  0  0  0  0  0  0  0  0  0
   -5.5536    1.3335   25.4781 C   0  0  0  0  0  0  0  0  0  0  0  0
   -6.4143    0.5582   26.4840 C   0  0  0  0  0  0  0  0  0  0  0  0
   -5.2222    0.4497   24.2946 C   0  0  0  0  0  0  0  0  0  0  0  0
   -6.3890    0.0586   23.4568 C   0  0  2  0  0  0  0  0  0  0  0  0
   -6.0212   -0.8217   22.3384 N   0  0  0  0  0  0  0  0  0  0  0  0
   -7.0195   -1.7089   21.8767 C   0  0  0  0  0  0  0  0  0  0  0  0
   -8.1469   -1.6369   22.4712 O   0  0  0  0  0  0  0  0  0  0  0  0
   -6.8977   -2.6857   20.7982 C   0  0  0  0  0  0  0  0  0  0  0  0
   -5.5769   -2.7793   20.2332 N   0  0  0  0  0  0  0  0  0  0  0  0
   -5.4048   -3.6833   19.1548 C   0  0  0  0  0  0  0  0  0  0  0  0
   -6.4366   -4.3025   18.7684 O   0  0  0  0  0  0  0  0  0  0  0  0
   -4.0960   -3.9366   18.4738 C   0  0  2  0  0  0  0  0  0  0  0  0
   -3.4492   -2.6714   18.0398 C   0  0  0  0  0  0  0  0  0  0  0  0
   -4.3803   -1.9619   17.0727 C   0  0  0  0  0  0  0  0  0  0  0  0
   -3.7235   -0.6745   16.6477 C   0  0  0  0  0  0  0  0  0  0  0  0
   -4.2920    0.1604   15.6442 N   0  0  0  0  0  0  0  0  0  0  0  0
   -2.6252   -0.3453   17.2212 O   0  0  0  0  0  0  0  0  0  0  0  0
   -4.2863   -4.8182   17.3388 N   0  0  0  0  0  0  0  0  0  0  0  0
   -4.3585   -6.2093   17.6017 C   0  0  0  0  0  0  0  0  0  0  0  0
   -4.2635   -6.5774   18.8006 O   0  0  0  0  0  0  0  0  0  0  0  0
   -4.5424   -7.2519   16.5765 C   0  0  2  0  0  0  0  0  0  0  0  0
   -3.9082   -8.5256   16.9221 C   0  0  0  0  0  0  0  0  0  0  0  0
   -4.0972   -9.6252   15.9487 C   0  0  0  0  0  0  0  0  0  0  0  0
   -3.2527   -9.9553   14.9326 C   0  0  0  0  0  0  0  0  0  0  0  0
   -3.5653  -11.0009   14.0718 C   0  0  0  0  0  0  0  0  0  0  0  0
   -4.7325  -11.7399   14.2118 C   0  0  0  0  0  0  0  0  0  0  0  0
   -5.0218  -12.7940   13.3267 O   0  0  0  0  0  0  0  0  0  0  0  0
   -5.5897  -11.4103   15.2380 C   0  0  0  0  0  0  0  0  0  0  0  0
   -5.2599  -10.3732   16.0755 C   0  0  0  0  0  0  0  0  0  0  0  0
   -4.3154   -6.6064   15.3159 N   0  0  0  0  0  0  0  0  0  0  0  0
   -2.9673   -6.5021   14.8985 C   0  0  0  0  0  0  0  0  0  0  0  0
   -2.1090   -6.9876   15.7081 O   0  0  0  0  0  0  0  0  0  0  0  0
   -2.4366   -5.9120   13.6643 C   0  0  1  0  0  0  0  0  0  0  0  0
   -1.0004   -6.1833   13.7119 N   0  0  0  0  0  0  0  0  0  0  0  0
   -0.0515   -5.3177   14.2680 C   0  0  0  0  0  0  0  0  0  0  0  0
   -0.5391   -4.2236   14.7470 O   0  0  0  0  0  0  0  0  0  0  0  0
    1.3778   -5.4732   14.3783 C   0  0  2  0  0  0  0  0  0  0  0  0
    1.9432   -6.6408   15.1216 C   0  0  0  0  0  0  0  0  0  0  0  0
    1.6412   -7.9812   14.6293 C   0  0  0  0  0  0  0  0  0  0  0  0
    0.6648   -8.8278   15.0825 C   0  0  0  0  0  0  0  0  0  0  0  0
    0.4730  -10.0914   14.5245 C   0  0  0  0  0  0  0  0  0  0  0  0
    1.2544  -10.5595   13.4846 C   0  0  0  0  0  0  0  0  0  0  0  0
    1.0569  -11.8142   12.9337 O   0  0  0  0  0  0  0  0  0  0  0  0
    2.2399   -9.7082   13.0255 C   0  0  0  0  0  0  0  0  0  0  0  0
    2.4282   -8.4617   13.5784 C   0  0  0  0  0  0  0  0  0  0  0  0
    2.0100   -4.2271   14.8919 N   0  0  0  0  0  0  0  0  0  0  0  0
    3.2937   -3.8198   14.4540 C   0  0  0  0  0  0  0  0  0  0  0  0
    3.9193   -4.5283   13.6255 O   0  0  0  0  0  0  0  0  0  0  0  0
    3.8533   -2.5441   15.0107 C   0  0  0  0  0  0  0  0  0  0  0  0
    5.1931   -2.2769   14.5390 N   0  0  0  0  0  0  0  0  0  0  0  0
    5.6053   -2.1721   13.2129 C   0  0  0  0  0  0  0  0  0  0  0  0
    4.7090   -2.3401   12.3142 O   0  0  0  0  0  0  0  0  0  0  0  0
    6.9632   -1.8910   12.7251 C   0  0  1  0  0  0  0  0  0  0  0  0
    7.8333   -1.2753   13.7053 N   0  0  0  0  0  0  0  0  0  0  0  0
    7.6374   -3.2199   12.2856 C   0  0  0  0  0  0  0  0  0  0  0  0
    7.6632   -4.0604   13.5173 C   0  0  0  0  0  0  0  0  0  0  0  0
    8.2926   -5.3969   13.4118 C   0  0  0  0  0  0  0  0  0  0  0  0
    7.7341   -6.3092   12.4651 N   0  0  0  0  0  0  0  0  0  0  0  0
    8.3646   -7.6134   12.3960 C   0  0  0  0  0  0  0  0  0  0  0  0
    7.8906   -8.5967   11.4839 N   0  0  0  0  0  0  0  0  0  0  0  0
    9.3661   -7.9177   13.1507 N   0  0  0  0  0  0  0  0  0  0  0  0
   -3.1086   -6.0618   12.4001 C   0  0  0  0  0  0  0  0  0  0  0  0
   -3.3201   -7.4648   11.8918 C   0  0  0  0  0  0  0  0  0  0  0  0
   -4.4258   -5.3303   12.3549 C   0  0  0  0  0  0  0  0  0  0  0  0
   -7.0550    1.2941   22.8697 C   0  0  0  0  0  0  0  0  0  0  0  0
   -6.4894    2.4116   22.8800 O   0  0  0  0  0  0  0  0  0  0  0  0
   -8.3120    1.1123   22.3287 O   0  0  0  0  0  0  0  0  0  0  0  0
  1  2  1  0
  2  3  1  0
  2  4  1  0
  5  4  1  6
  5  6  1  0
  6  7  1  0
  7  8  2  0
  7  9  1  0
  9 10  1  0
 10 11  1  0
 11 12  2  0
 11 13  1  0
 13 14  1  6
 14 15  1  0
 15 16  1  0
 16 17  1  0
 16 18  2  0
 13 19  1  0
 19 20  1  0
 20 21  2  0
 20 22  1  0
 22 23  1  1
 23 24  1  0
 24 25  2  0
 25 26  1  0
 26 27  2  0
 27 28  1  0
 27 29  1  0
 29 30  2  0
 22 31  1  0
 31 32  1  0
 32 33  2  0
 32 34  1  0
 34 35  1  6
 35 36  1  0
 36 37  2  0
 36 38  1  0
 38 39  1  1
 39 40  1  0
 40 41  2  0
 41 42  1  0
 42 43  2  0
 43 44  1  0
 43 45  1  0
 45 46  2  0
 38 47  1  0
 47 48  1  0
 48 49  2  0
 48 50  1  0
 50 51  1  0
 51 52  1  0
 52 53  2  0
 52 54  1  0
 54 55  1  1
 54 56  1  0
 56 57  1  0
 57 58  1  0
 58 59  1  0
 59 60  1  0
 60 61  1  0
 60 62  2  0
 34 63  1  0
 63 64  1  0
 63 65  1  0
  5 66  1  0
 66 67  2  0
 66 68  1  0
 30 24  1  0
 46 40  1  0
M  CHG  3  55   1  62   1  68  -1
M  END
>  <shape_align_shape_tanimoto>  (1) 
0.36106246180143042

>  <shape_align_color_tanimoto>  (1) 
0.031902354481548302

>  <metric>  (1) 
shape

>  <metric_score>  (1) 
0.361

>  <template_pid>  (1) 
1FZJ

>  <template_shape_score>  (1) 
0.361

>  <template_color_score>  (1) 
0.032

>  <template_combo_score>  (1) 
0.196

$$$$
1FZJ_color_pose
     RDKit          3D

 68 69  0  0  0  0  0  0  0  0999 V2000
    4.9025   -3.4911   12.3951 C   0  0  0  0  0  0  0  0  0  0  0  0
    4.7853   -3.2512   13.8294 C   0  0  0  0  0  0  0  0  0  0  0  0
    5.4497   -2.0720   14.2306 C   0  0  0  0  0  0  0  0  0  0  0  0
    5.2891   -4.3947   14.4952 C   0  0  0  0  0  0  0  0  0  0  0  0
    4.5116   -5.5770   14.1791 C   0  0  2  0  0  0  0  0  0  0  0  0
    3.2180   -5.4892   14.5959 N   0  0  0  0  0  0  0  0  0  0  0  0
    2.7431   -4.7353   15.5798 C   0  0  0  0  0  0  0  0  0  0  0  0
    3.4321   -4.0217   16.2777 O   0  0  0  0  0  0  0  0  0  0  0  0
    1.3648   -4.6774   15.9380 C   0  0  0  0  0  0  0  0  0  0  0  0
    0.6168   -5.4317   15.0644 N   0  0  0  0  0  0  0  0  0  0  0  0
    0.6035   -5.0167   13.7937 C   0  0  0  0  0  0  0  0  0  0  0  0
    1.1889   -4.0408   13.4215 O   0  0  0  0  0  0  0  0  0  0  0  0
   -0.1216   -5.7219   12.7530 C   0  0  2  0  0  0  0  0  0  0  0  0
   -0.7994   -4.7293   12.0488 C   0  0  0  0  0  0  0  0  0  0  0  0
   -1.5438   -4.9638   10.9146 C   0  0  0  0  0  0  0  0  0  0  0  0
   -2.6460   -5.7681   10.9843 C   0  0  0  0  0  0  0  0  0  0  0  0
   -3.1916   -6.1301    9.7605 N   0  0  0  0  0  0  0  0  0  0  0  0
   -3.2211   -6.2099   11.8966 O   0  0  0  0  0  0  0  0  0  0  0  0
   -0.7643   -6.7516   13.3336 N   0  0  0  0  0  0  0  0  0  0  0  0
   -1.7587   -6.7357   14.2203 C   0  0  0  0  0  0  0  0  0  0  0  0
   -2.2006   -5.6927   14.5736 O   0  0  0  0  0  0  0  0  0  0  0  0
   -2.2517   -7.9898   14.7108 C   0  0  2  0  0  0  0  0  0  0  0  0
   -2.4640   -8.9444   13.7136 C   0  0  0  0  0  0  0  0  0  0  0  0
   -2.9382  -10.1382   14.2751 C   0  0  0  0  0  0  0  0  0  0  0  0
   -4.1868  -10.4600   14.3963 C   0  0  0  0  0  0  0  0  0  0  0  0
   -4.5616  -11.5960   14.9323 C   0  0  0  0  0  0  0  0  0  0  0  0
   -3.6188  -12.3974   15.3422 C   0  0  0  0  0  0  0  0  0  0  0  0
   -4.0308  -13.5436   15.8799 O   0  0  0  0  0  0  0  0  0  0  0  0
   -2.3544  -12.1215   15.2431 C   0  0  0  0  0  0  0  0  0  0  0  0
   -2.0028  -10.9807   14.7046 C   0  0  0  0  0  0  0  0  0  0  0  0
   -3.3625   -7.7395   15.4550 N   0  0  0  0  0  0  0  0  0  0  0  0
   -3.3947   -7.1560   16.6569 C   0  0  0  0  0  0  0  0  0  0  0  0
   -2.3088   -6.7856   17.0692 O   0  0  0  0  0  0  0  0  0  0  0  0
   -4.4824   -6.9334   17.4689 C   0  0  1  0  0  0  0  0  0  0  0  0
   -4.1864   -5.9977   18.4289 N   0  0  0  0  0  0  0  0  0  0  0  0
   -3.3189   -6.1038   19.4118 C   0  0  0  0  0  0  0  0  0  0  0  0
   -2.6915   -7.1623   19.4416 O   0  0  0  0  0  0  0  0  0  0  0  0
   -3.0049   -5.2167   20.4098 C   0  0  2  0  0  0  0  0  0  0  0  0
   -2.9896   -3.8479   20.2704 C   0  0  0  0  0  0  0  0  0  0  0  0
   -4.1243   -3.1367   19.9430 C   0  0  0  0  0  0  0  0  0  0  0  0
   -4.9613   -2.8788   20.9470 C   0  0  0  0  0  0  0  0  0  0  0  0
   -6.0475   -2.1759   20.7739 C   0  0  0  0  0  0  0  0  0  0  0  0
   -6.3307   -1.7084   19.5964 C   0  0  0  0  0  0  0  0  0  0  0  0
   -7.4349   -1.0077   19.4754 O   0  0  0  0  0  0  0  0  0  0  0  0
   -5.5466   -1.9338   18.5966 C   0  0  0  0  0  0  0  0  0  0  0  0
   -4.4472   -2.6495   18.7862 C   0  0  0  0  0  0  0  0  0  0  0  0
   -1.7791   -5.5875   20.9779 N   0  0  0  0  0  0  0  0  0  0  0  0
   -1.6424   -6.2667   22.0969 C   0  0  0  0  0  0  0  0  0  0  0  0
   -2.6445   -6.6314   22.6749 O   0  0  0  0  0  0  0  0  0  0  0  0
   -0.4312   -6.6240   22.7056 C   0  0  0  0  0  0  0  0  0  0  0  0
    0.5943   -6.0405   21.9832 N   0  0  0  0  0  0  0  0  0  0  0  0
    0.5813   -4.6908   21.9675 C   0  0  0  0  0  0  0  0  0  0  0  0
   -0.3135   -4.1424   22.5797 O   0  0  0  0  0  0  0  0  0  0  0  0
    1.4861   -3.8675   21.3231 C   0  0  1  0  0  0  0  0  0  0  0  0
    2.5623   -4.6302   20.8824 N   0  0  0  0  0  0  0  0  0  0  0  0
    0.8750   -3.2135   20.1720 C   0  0  0  0  0  0  0  0  0  0  0  0
    1.8737   -2.3745   19.5837 C   0  0  0  0  0  0  0  0  0  0  0  0
    1.3265   -1.7238   18.4286 C   0  0  0  0  0  0  0  0  0  0  0  0
    0.2329   -0.9618   18.7778 N   0  0  0  0  0  0  0  0  0  0  0  0
   -0.4480   -0.2536   17.8392 C   0  0  0  0  0  0  0  0  0  0  0  0
   -1.5242    0.4981   18.1573 N   0  0  0  0  0  0  0  0  0  0  0  0
   -0.0764   -0.3014   16.6796 N   0  0  0  0  0  0  0  0  0  0  0  0
   -5.7325   -6.7458   16.8898 C   0  0  0  0  0  0  0  0  0  0  0  0
   -6.2854   -7.7862   16.1256 C   0  0  0  0  0  0  0  0  0  0  0  0
   -6.6754   -6.4371   17.9682 C   0  0  0  0  0  0  0  0  0  0  0  0
    5.1535   -6.7494   14.4944 C   0  0  0  0  0  0  0  0  0  0  0  0
    6.1494   -7.1427   13.9699 O   0  0  0  0  0  0  0  0  0  0  0  0
    4.6448   -7.5167   15.4501 O   0  0  0  0  0  0  0  0  0  0  0  0
  1  2  1  0
  2  3  1  0
  2  4  1  0
  5  4  1  1
  5  6  1  0
  6  7  1  0
  7  8  2  0
  7  9  1  0
  9 10  1  0
 10 11  1  0
 11 12  2  0
 11 13  1  0
 13 14  1  1
 14 15  1  0
 15 16  1  0
 16 17  1  0
 16 18  2  0
 13 19  1  0
 19 20  1  0
 20 21  2  0
 20 22  1  0
 22 23  1  6
 23 24  1  0
 24 25  2  0
 25 26  1  0
 26 27  2  0
 27 28  1  0
 27 29  1  0
 29 30  2  0
 22 31  1  0
 31 32  1  0
 32 33  2  0
 32 34  1  0
 34 35  1  6
 35 36  1  0
 36 37  2  0
 36 38  1  0
 38 39  1  6
 39 40  1  0
 40 41  2  0
 41 42  1  0
 42 43  2  0
 43 44  1  0
 43 45  1  0
 45 46  2  0
 38 47  1  0
 47 48  1  0
 48 49  2  0
 48 50  1  0
 50 51  1  0
 51 52  1  0
 52 53  2  0
 52 54  1  0
 54 55  1  6
 54 56  1  0
 56 57  1  0
 57 58  1  0
 58 59  1  0
 59 60  1  0
 60 61  1  0
 60 62  2  0
 34 63  1  0
 63 64  1  0
 63 65  1  0
  5 66  1  0
 66 67  2  0
 66 68  1  0
 30 24  1  0
 46 40  1  0
M  CHG  3  55   1  62   1  68  -1
M  END
>  <shape_align_shape_tanimoto>  (2) 
0.31408770785280732

>  <shape_align_color_tanimoto>  (2) 
0.051968658179472361

>  <metric>  (2) 
color

>  <metric_score>  (2) 
0.052

>  <template_pid>  (2) 
1FZJ

>  <template_shape_score>  (2) 
0.314

>  <template_color_score>  (2) 
0.052

>  <template_combo_score>  (2) 
0.183

$$$$
1FZJ_combo_pose
     RDKit          3D

 68 69  0  0  0  0  0  0  0  0999 V2000
   -4.2843    1.6899   26.2478 C   0  0  0  0  0  0  0  0  0  0  0  0
   -5.5536    1.3335   25.4781 C   0  0  0  0  0  0  0  0  0  0  0  0
   -6.4143    0.5582   26.4840 C   0  0  0  0  0  0  0  0  0  0  0  0
   -5.2222    0.4497   24.2946 C   0  0  0  0  0  0  0  0  0  0  0  0
   -6.3890    0.0586   23.4568 C   0  0  2  0  0  0  0  0  0  0  0  0
   -6.0212   -0.8217   22.3384 N   0  0  0  0  0  0  0  0  0  0  0  0
   -7.0195   -1.7089   21.8767 C   0  0  0  0  0  0  0  0  0  0  0  0
   -8.1469   -1.6369   22.4712 O   0  0  0  0  0  0  0  0  0  0  0  0
   -6.8977   -2.6857   20.7982 C   0  0  0  0  0  0  0  0  0  0  0  0
   -5.5769   -2.7793   20.2332 N   0  0  0  0  0  0  0  0  0  0  0  0
   -5.4048   -3.6833   19.1548 C   0  0  0  0  0  0  0  0  0  0  0  0
   -6.4366   -4.3025   18.7684 O   0  0  0  0  0  0  0  0  0  0  0  0
   -4.0960   -3.9366   18.4738 C   0  0  2  0  0  0  0  0  0  0  0  0
   -3.4492   -2.6714   18.0398 C   0  0  0  0  0  0  0  0  0  0  0  0
   -4.3803   -1.9619   17.0727 C   0  0  0  0  0  0  0  0  0  0  0  0
   -3.7235   -0.6745   16.6477 C   0  0  0  0  0  0  0  0  0  0  0  0
   -4.2920    0.1604   15.6442 N   0  0  0  0  0  0  0  0  0  0  0  0
   -2.6252   -0.3453   17.2212 O   0  0  0  0  0  0  0  0  0  0  0  0
   -4.2863   -4.8182   17.3388 N   0  0  0  0  0  0  0  0  0  0  0  0
   -4.3585   -6.2093   17.6017 C   0  0  0  0  0  0  0  0  0  0  0  0
   -4.2635   -6.5774   18.8006 O   0  0  0  0  0  0  0  0  0  0  0  0
   -4.5424   -7.2519   16.5765 C   0  0  2  0  0  0  0  0  0  0  0  0
   -3.9082   -8.5256   16.9221 C   0  0  0  0  0  0  0  0  0  0  0  0
   -4.0972   -9.6252   15.9487 C   0  0  0  0  0  0  0  0  0  0  0  0
   -3.2527   -9.9553   14.9326 C   0  0  0  0  0  0  0  0  0  0  0  0
   -3.5653  -11.0009   14.0718 C   0  0  0  0  0  0  0  0  0  0  0  0
   -4.7325  -11.7399   14.2118 C   0  0  0  0  0  0  0  0  0  0  0  0
   -5.0218  -12.7940   13.3267 O   0  0  0  0  0  0  0  0  0  0  0  0
   -5.5897  -11.4103   15.2380 C   0  0  0  0  0  0  0  0  0  0  0  0
   -5.2599  -10.3732   16.0755 C   0  0  0  0  0  0  0  0  0  0  0  0
   -4.3154   -6.6064   15.3159 N   0  0  0  0  0  0  0  0  0  0  0  0
   -2.9673   -6.5021   14.8985 C   0  0  0  0  0  0  0  0  0  0  0  0
   -2.1090   -6.9876   15.7081 O   0  0  0  0  0  0  0  0  0  0  0  0
   -2.4366   -5.9120   13.6643 C   0  0  1  0  0  0  0  0  0  0  0  0
   -1.0004   -6.1833   13.7119 N   0  0  0  0  0  0  0  0  0  0  0  0
   -0.0515   -5.3177   14.2680 C   0  0  0  0  0  0  0  0  0  0  0  0
   -0.5391   -4.2236   14.7470 O   0  0  0  0  0  0  0  0  0  0  0  0
    1.3778   -5.4732   14.3783 C   0  0  2  0  0  0  0  0  0  0  0  0
    1.9432   -6.6408   15.1216 C   0  0  0  0  0  0  0  0  0  0  0  0
    1.6412   -7.9812   14.6293 C   0  0  0  0  0  0  0  0  0  0  0  0
    0.6648   -8.8278   15.0825 C   0  0  0  0  0  0  0  0  0  0  0  0
    0.4730  -10.0914   14.5245 C   0  0  0  0  0  0  0  0  0  0  0  0
    1.2544  -10.5595   13.4846 C   0  0  0  0  0  0  0  0  0  0  0  0
    1.0569  -11.8142   12.9337 O   0  0  0  0  0  0  0  0  0  0  0  0
    2.2399   -9.7082   13.0255 C   0  0  0  0  0  0  0  0  0  0  0  0
    2.4282   -8.4617   13.5784 C   0  0  0  0  0  0  0  0  0  0  0  0
    2.0100   -4.2271   14.8919 N   0  0  0  0  0  0  0  0  0  0  0  0
    3.2937   -3.8198   14.4540 C   0  0  0  0  0  0  0  0  0  0  0  0
    3.9193   -4.5283   13.6255 O   0  0  0  0  0  0  0  0  0  0  0  0
    3.8533   -2.5441   15.0107 C   0  0  0  0  0  0  0  0  0  0  0  0
    5.1931   -2.2769   14.5390 N   0  0  0  0  0  0  0  0  0  0  0  0
    5.6053   -2.1721   13.2129 C   0  0  0  0  0  0  0  0  0  0  0  0
    4.7090   -2.3401   12.3142 O   0  0  0  0  0  0  0  0  0  0  0  0
    6.9632   -1.8910   12.7251 C   0  0  1  0  0  0  0  0  0  0  0  0
    7.8333   -1.2753   13.7053 N   0  0  0  0  0  0  0  0  0  0  0  0
    7.6374   -3.2199   12.2856 C   0  0  0  0  0  0  0  0  0  0  0  0
    7.6632   -4.0604   13.5173 C   0  0  0  0  0  0  0  0  0  0  0  0
    8.2926   -5.3969   13.4118 C   0  0  0  0  0  0  0  0  0  0  0  0
    7.7341   -6.3092   12.4651 N   0  0  0  0  0  0  0  0  0  0  0  0
    8.3646   -7.6134   12.3960 C   0  0  0  0  0  0  0  0  0  0  0  0
    7.8906   -8.5967   11.4839 N   0  0  0  0  0  0  0  0  0  0  0  0
    9.3661   -7.9177   13.1507 N   0  0  0  0  0  0  0  0  0  0  0  0
   -3.1086   -6.0618   12.4001 C   0  0  0  0  0  0  0  0  0  0  0  0
   -3.3201   -7.4648   11.8918 C   0  0  0  0  0  0  0  0  0  0  0  0
   -4.4258   -5.3303   12.3549 C   0  0  0  0  0  0  0  0  0  0  0  0
   -7.0550    1.2941   22.8697 C   0  0  0  0  0  0  0  0  0  0  0  0
   -6.4894    2.4116   22.8800 O   0  0  0  0  0  0  0  0  0  0  0  0
   -8.3120    1.1123   22.3287 O   0  0  0  0  0  0  0  0  0  0  0  0
  1  2  1  0
  2  3  1  0
  2  4  1  0
  5  4  1  6
  5  6  1  0
  6  7  1  0
  7  8  2  0
  7  9  1  0
  9 10  1  0
 10 11  1  0
 11 12  2  0
 11 13  1  0
 13 14  1  6
 14 15  1  0
 15 16  1  0
 16 17  1  0
 16 18  2  0
 13 19  1  0
 19 20  1  0
 20 21  2  0
 20 22  1  0
 22 23  1  1
 23 24  1  0
 24 25  2  0
 25 26  1  0
 26 27  2  0
 27 28  1  0
 27 29  1  0
 29 30  2  0
 22 31  1  0
 31 32  1  0
 32 33  2  0
 32 34  1  0
 34 35  1  6
 35 36  1  0
 36 37  2  0
 36 38  1  0
 38 39  1  1
 39 40  1  0
 40 41  2  0
 41 42  1  0
 42 43  2  0
 43 44  1  0
 43 45  1  0
 45 46  2  0
 38 47  1  0
 47 48  1  0
 48 49  2  0
 48 50  1  0
 50 51  1  0
 51 52  1  0
 52 53  2  0
 52 54  1  0
 54 55  1  1
 54 56  1  0
 56 57  1  0
 57 58  1  0
 58 59  1  0
 59 60  1  0
 60 61  1  0
 60 62  2  0
 34 63  1  0
 63 64  1  0
 63 65  1  0
  5 66  1  0
 66 67  2  0
 66 68  1  0
 30 24  1  0
 46 40  1  0
M  CHG  3  55   1  62   1  68  -1
M  END
>  <shape_align_shape_tanimoto>  (3) 
0.36106246180143042

>  <shape_align_color_tanimoto>  (3) 
0.031902354481548302

>  <metric>  (3) 
combo

>  <metric_score>  (3) 
0.196

>  <template_pid>  (3) 
1FZJ

>  <template_shape_score>  (3) 
0.361

>  <template_color_score>  (3) 
0.032

>  <template_combo_score>  (3) 
0.196

$$$$
