3PDC_shape_pose
     RDKit          3D

 19 21  0  0  0  0  0  0  0  0999 V2000
  -18.5185   -7.5407   64.1468 O   0  0  0  0  0  0  0  0  0  0  0  0
  -17.3378   -7.7557   63.7683 C   0  0  0  0  0  0  0  0  0  0  0  0
  -16.6775   -7.0761   62.6477 C   0  0  0  0  0  0  0  0  0  0  0  0
  -17.5658   -6.0631   61.9659 C   0  0  0  0  0  0  0  0  0  0  0  0
  -18.8127   -6.6332   61.3900 C   0  0  0  0  0  0  0  0  0  0  0  0
  -19.9879   -5.9941   62.0475 C   0  0  0  0  0  0  0  0  0  0  0  0
  -19.4797   -4.9571   62.9945 C   0  0  0  0  0  0  0  0  0  0  0  0
  -17.9917   -4.9515   62.8575 C   0  0  0  0  0  0  0  0  0  0  0  0
  -16.6002   -8.7326   64.4895 N   0  0  0  0  0  0  0  0  0  0  0  0
  -17.1685   -9.4371   65.5898 C   0  0  0  0  0  0  0  0  0  0  0  0
  -16.5617  -10.3761   66.3369 N   0  0  0  0  0  0  0  0  0  0  0  0
  -17.4405  -10.8040   67.2866 C   0  0  0  0  0  0  0  0  0  0  0  0
  -17.3124  -11.7384   68.2810 C   0  0  0  0  0  0  0  0  0  0  0  0
  -18.4045  -11.9624   69.1116 C   0  0  0  0  0  0  0  0  0  0  0  0
  -18.2404  -13.1607   70.3867 Cl  0  0  0  0  0  0  0  0  0  0  0  0
  -19.5725  -11.2574   68.9266 C   0  0  0  0  0  0  0  0  0  0  0  0
  -19.6791  -10.3150   67.9119 C   0  0  0  0  0  0  0  0  0  0  0  0
  -18.6005  -10.0833   67.0796 C   0  0  0  0  0  0  0  0  0  0  0  0
  -18.3866   -9.2723   66.0451 O   0  0  0  0  0  0  0  0  0  0  0  0
  1  2  2  0
  2  3  1  0
  3  4  1  0
  4  5  1  0
  5  6  1  0
  6  7  1  0
  7  8  1  0
  2  9  1  0
  9 10  1  0
 10 11  2  0
 11 12  1  0
 12 13  2  0
 13 14  1  0
 14 15  1  0
 14 16  2  0
 16 17  1  0
 17 18  2  0
 18 19  1  0
  8  4  1  0
 19 10  1  0
 18 12  1  0
M  END
>  <shape_align_shape_tanimoto>  (1) 
0.80961930466778986

>  <shape_align_color_tanimoto>  (1) 
0.032882067426023814

>  <metric>  (1) 
shape

>  <metric_score>  (1) 
0.810

>  <template_pid>  (1) 
3PDC

>  <template_shape_score>  (1) 
0.810

>  <template_color_score>  (1) 
0.033

>  <template_combo_score>  (1) 
0.421

$$$$
3PDC_color_pose
     RDKit          3D

 19 21  0  0  0  0  0  0  0  0999 V2000
  -18.8341  -10.3207   66.6951 O   0  0  0  0  0  0  0  0  0  0  0  0
  -17.6867  -10.1932   67.1954 C   0  0  0  0  0  0  0  0  0  0  0  0
  -17.1952  -10.9262   68.3682 C   0  0  0  0  0  0  0  0  0  0  0  0
  -18.2360  -11.8554   68.9048 C   0  0  0  0  0  0  0  0  0  0  0  0
  -19.4962  -11.1862   69.3412 C   0  0  0  0  0  0  0  0  0  0  0  0
  -20.6449  -11.9410   68.7154 C   0  0  0  0  0  0  0  0  0  0  0  0
  -20.0836  -12.8523   67.6661 C   0  0  0  0  0  0  0  0  0  0  0  0
  -18.5881  -12.8780   67.8527 C   0  0  0  0  0  0  0  0  0  0  0  0
  -16.8109   -9.2502   66.5478 N   0  0  0  0  0  0  0  0  0  0  0  0
  -17.2231   -8.5065   65.4069 C   0  0  0  0  0  0  0  0  0  0  0  0
  -17.8332   -7.2861   65.3745 N   0  0  0  0  0  0  0  0  0  0  0  0
  -18.0472   -6.9509   64.0780 C   0  0  0  0  0  0  0  0  0  0  0  0
  -18.6249   -5.8350   63.4979 C   0  0  0  0  0  0  0  0  0  0  0  0
  -18.6977   -5.7897   62.1080 C   0  0  0  0  0  0  0  0  0  0  0  0
  -19.4307   -4.3749   61.3569 Cl  0  0  0  0  0  0  0  0  0  0  0  0
  -18.2020   -6.8395   61.3285 C   0  0  0  0  0  0  0  0  0  0  0  0
  -17.6224   -7.9572   61.9383 C   0  0  0  0  0  0  0  0  0  0  0  0
  -17.5483   -8.0049   63.3323 C   0  0  0  0  0  0  0  0  0  0  0  0
  -17.0656   -8.9132   64.1481 O   0  0  0  0  0  0  0  0  0  0  0  0
  1  2  2  0
  2  3  1  0
  3  4  1  0
  4  5  1  0
  5  6  1  0
  6  7  1  0
  7  8  1  0
  2  9  1  0
  9 10  1  0
 10 11  2  0
 11 12  1  0
 12 13  2  0
 13 14  1  0
 14 15  1  0
 14 16  2  0
 16 17  1  0
 17 18  2  0
 18 19  1  0
  8  4  1  0
 19 10  1  0
 18 12  1  0
M  END
>  <shape_align_shape_tanimoto>  (2) 
0.70680349570573842

>  <shape_align_color_tanimoto>  (2) 
0.11729446187623138

>  <metric>  (2) 
color

>  <metric_score>  (2) 
0.117

>  <template_pid>  (2) 
3PDC

>  <template_shape_score>  (2) 
0.707

>  <template_color_score>  (2) 
0.117

>  <template_combo_score>  (2) 
0.412

$$$$
3PDC_combo_pose
     RDKit          3D

 19 21  0  0  0  0  0  0  0  0999 V2000
  -17.9419   -9.2188   64.3821 O   0  0  0  0  0  0  0  0  0  0  0  0
  -17.5455   -8.1265   64.8553 C   0  0  0  0  0  0  0  0  0  0  0  0
  -17.2202   -6.9308   64.0462 C   0  0  0  0  0  0  0  0  0  0  0  0
  -17.4834   -7.2541   62.6105 C   0  0  0  0  0  0  0  0  0  0  0  0
  -17.1731   -6.0996   61.6837 C   0  0  0  0  0  0  0  0  0  0  0  0
  -18.4100   -5.2516   61.7366 C   0  0  0  0  0  0  0  0  0  0  0  0
  -19.5329   -6.2801   61.8063 C   0  0  0  0  0  0  0  0  0  0  0  0
  -18.9248   -7.5324   62.3465 C   0  0  0  0  0  0  0  0  0  0  0  0
  -17.4051   -8.0524   66.2753 N   0  0  0  0  0  0  0  0  0  0  0  0
  -17.7429   -9.2618   66.9873 C   0  0  0  0  0  0  0  0  0  0  0  0
  -16.9144  -10.2823   67.3079 N   0  0  0  0  0  0  0  0  0  0  0  0
  -17.6106  -11.2320   67.9755 C   0  0  0  0  0  0  0  0  0  0  0  0
  -17.2709  -12.4544   68.5238 C   0  0  0  0  0  0  0  0  0  0  0  0
  -18.2113  -13.2420   69.1688 C   0  0  0  0  0  0  0  0  0  0  0  0
  -17.7719  -14.7974   69.8647 Cl  0  0  0  0  0  0  0  0  0  0  0  0
  -19.4990  -12.7434   69.2343 C   0  0  0  0  0  0  0  0  0  0  0  0
  -19.8517  -11.5251   68.6914 C   0  0  0  0  0  0  0  0  0  0  0  0
  -18.9009  -10.7485   68.0495 C   0  0  0  0  0  0  0  0  0  0  0  0
  -18.9502   -9.5747   67.4534 O   0  0  0  0  0  0  0  0  0  0  0  0
  1  2  2  0
  2  3  1  0
  3  4  1  0
  4  5  1  0
  5  6  1  0
  6  7  1  0
  7  8  1  0
  2  9  1  0
  9 10  1  0
 10 11  2  0
 11 12  1  0
 12 13  2  0
 13 14  1  0
 14 15  1  0
 14 16  2  0
 16 17  1  0
 17 18  2  0
 18 19  1  0
  8  4  1  0
 19 10  1  0
 18 12  1  0
M  END
>  <shape_align_shape_tanimoto>  (3) 
0.7760046894258319

>  <shape_align_color_tanimoto>  (3) 
0.1054075499591139

>  <metric>  (3) 
combo

>  <metric_score>  (3) 
0.441

>  <template_pid>  (3) 
3PDC

>  <template_shape_score>  (3) 
0.776

>  <template_color_score>  (3) 
0.105

>  <template_combo_score>  (3) 
0.441

$$$$
