1CAQ_shape_pose
     RDKit          3D

 36 40  0  0  0  0  0  0  0  0999 V2000
   -4.1311   53.0816   50.5809 O   0  0  0  0  0  0  0  0  0  0  0  0
   -3.3193   52.8926   49.6082 C   0  0  0  0  0  0  0  0  0  0  0  0
   -3.5643   53.4564   48.3494 O   0  0  0  0  0  0  0  0  0  0  0  0
   -2.0819   52.0320   49.8793 C   0  0  2  0  0  0  0  0  0  0  0  0
   -1.1297   52.3312   48.7300 C   0  0  0  0  0  0  0  0  0  0  0  0
    0.1577   51.5991   48.7755 C   0  0  0  0  0  0  0  0  0  0  0  0
    0.5454   50.4833   48.0063 C   0  0  0  0  0  0  0  0  0  0  0  0
    1.8097   50.1116   48.3464 N   0  0  0  0  0  0  0  0  0  0  0  0
    2.2848   50.9427   49.3216 C   0  0  0  0  0  0  0  0  0  0  0  0
    3.4861   51.0441   50.0364 C   0  0  0  0  0  0  0  0  0  0  0  0
    3.6634   52.0307   50.9865 C   0  0  0  0  0  0  0  0  0  0  0  0
    2.6579   52.9687   51.2774 C   0  0  0  0  0  0  0  0  0  0  0  0
    1.4680   52.8538   50.5562 C   0  0  0  0  0  0  0  0  0  0  0  0
    1.2551   51.8692   49.5888 C   0  0  0  0  0  0  0  0  0  0  0  0
   -2.5625   50.6726   49.9309 N   0  0  0  0  0  0  0  0  0  0  0  0
   -2.5269   49.9159   51.4700 S   0  0  0  0  0  0  0  0  0  0  0  0
   -3.0366   48.4764   51.2753 O   0  0  0  0  0  0  0  0  0  0  0  0
   -3.4728   50.5466   52.4770 O   0  0  0  0  0  0  0  0  0  0  0  0
   -0.8858   49.8205   52.0603 C   0  0  0  0  0  0  0  0  0  0  0  0
   -0.1025   48.6909   51.7662 C   0  0  0  0  0  0  0  0  0  0  0  0
    1.2122   48.5610   52.2237 C   0  0  0  0  0  0  0  0  0  0  0  0
    1.8268   49.5477   53.0015 C   0  0  0  0  0  0  0  0  0  0  0  0
    3.1514   49.4194   53.4866 N   0  0  0  0  0  0  0  0  0  0  0  0
    3.9292   48.1607   53.4455 C   0  0  0  0  0  0  0  0  0  0  0  0
    4.6548   47.9367   54.7459 C   0  0  0  0  0  0  0  0  0  0  0  0
    4.3039   48.8215   55.9022 C   0  0  0  0  0  0  0  0  0  0  0  0
    3.3159   48.2170   56.8715 C   0  0  0  0  0  0  0  0  0  0  0  0
    3.7396   47.9088   58.1747 C   0  0  0  0  0  0  0  0  0  0  0  0
    2.8349   47.3458   59.1085 C   0  0  0  0  0  0  0  0  0  0  0  0
    1.5145   47.0826   58.7713 C   0  0  0  0  0  0  0  0  0  0  0  0
    1.0911   47.3877   57.4780 C   0  0  0  0  0  0  0  0  0  0  0  0
    2.0025   47.9495   56.5542 C   0  0  0  0  0  0  0  0  0  0  0  0
    3.9087   50.2453   55.5809 C   0  0  0  0  0  0  0  0  0  0  0  0
    3.8983   50.5640   54.0857 C   0  0  0  0  0  0  0  0  0  0  0  0
    1.0578   50.6720   53.2975 C   0  0  0  0  0  0  0  0  0  0  0  0
   -0.2758   50.8064   52.8353 C   0  0  0  0  0  0  0  0  0  0  0  0
  1  2  2  0
  2  3  1  0
  2  4  1  0
  4  5  1  6
  5  6  1  0
  6  7  2  0
  7  8  1  0
  8  9  1  0
  9 10  2  0
 10 11  1  0
 11 12  2  0
 12 13  1  0
 13 14  2  0
  4 15  1  0
 15 16  1  0
 16 17  2  0
 16 18  2  0
 16 19  1  0
 19 20  2  0
 20 21  1  0
 21 22  2  0
 22 23  1  0
 23 24  1  0
 24 25  1  0
 25 26  1  0
 26 27  1  0
 27 28  2  0
 28 29  1  0
 29 30  2  0
 30 31  1  0
 31 32  2  0
 26 33  1  0
 33 34  1  0
 22 35  1  0
 35 36  2  0
 14  6  1  0
 36 19  1  0
 14  9  1  0
 34 23  1  0
 32 27  1  0
M  CHG  1   3  -1
M  END
>  <shape_align_shape_tanimoto>  (1) 
0.60685933712770823

>  <shape_align_color_tanimoto>  (1) 
0.0064040196675604196

>  <metric>  (1) 
shape

>  <metric_score>  (1) 
0.607

>  <template_pid>  (1) 
1CAQ

>  <template_shape_score>  (1) 
0.607

>  <template_color_score>  (1) 
0.006

>  <template_combo_score>  (1) 
0.307

$$$$
1CAQ_color_pose
     RDKit          3D

 36 40  0  0  0  0  0  0  0  0999 V2000
   -2.6069   49.5247   50.8819 O   0  0  0  0  0  0  0  0  0  0  0  0
   -1.3935   49.8408   50.8462 C   0  0  0  0  0  0  0  0  0  0  0  0
   -0.4627   49.2494   51.6998 O   0  0  0  0  0  0  0  0  0  0  0  0
   -0.8662   50.8759   49.8822 C   0  0  2  0  0  0  0  0  0  0  0  0
   -1.9349   51.3927   49.0702 C   0  0  0  0  0  0  0  0  0  0  0  0
   -3.0884   52.0614   49.6282 C   0  0  0  0  0  0  0  0  0  0  0  0
   -4.3839   51.5519   49.7705 C   0  0  0  0  0  0  0  0  0  0  0  0
   -5.1889   52.4444   50.3203 N   0  0  0  0  0  0  0  0  0  0  0  0
   -4.4776   53.5622   50.5621 C   0  0  0  0  0  0  0  0  0  0  0  0
   -4.8056   54.7920   51.1179 C   0  0  0  0  0  0  0  0  0  0  0  0
   -3.8968   55.8103   51.2713 C   0  0  0  0  0  0  0  0  0  0  0  0
   -2.5948   55.5947   50.8505 C   0  0  0  0  0  0  0  0  0  0  0  0
   -2.2728   54.3753   50.3003 C   0  0  0  0  0  0  0  0  0  0  0  0
   -3.1790   53.3460   50.1420 C   0  0  0  0  0  0  0  0  0  0  0  0
    0.0235   50.0940   49.0309 N   0  0  0  0  0  0  0  0  0  0  0  0
    1.6565   50.4603   49.0587 S   0  0  0  0  0  0  0  0  0  0  0  0
    2.0180   51.7831   48.4400 O   0  0  0  0  0  0  0  0  0  0  0  0
    2.3301   49.4525   48.1620 O   0  0  0  0  0  0  0  0  0  0  0  0
    2.4111   50.2485   50.6203 C   0  0  0  0  0  0  0  0  0  0  0  0
    2.4497   51.3360   51.4696 C   0  0  0  0  0  0  0  0  0  0  0  0
    3.0373   51.2131   52.7199 C   0  0  0  0  0  0  0  0  0  0  0  0
    3.5962   50.0380   53.1672 C   0  0  0  0  0  0  0  0  0  0  0  0
    4.2069   49.8694   54.4304 N   0  0  0  0  0  0  0  0  0  0  0  0
    4.7142   48.5600   54.8063 C   0  0  0  0  0  0  0  0  0  0  0  0
    5.2648   48.5875   56.1925 C   0  0  0  0  0  0  0  0  0  0  0  0
    4.2830   49.1373   57.1685 C   0  0  0  0  0  0  0  0  0  0  0  0
    3.1040   48.2601   57.4143 C   0  0  0  0  0  0  0  0  0  0  0  0
    3.0525   47.5093   58.5811 C   0  0  0  0  0  0  0  0  0  0  0  0
    1.9802   46.6789   58.8783 C   0  0  0  0  0  0  0  0  0  0  0  0
    0.9171   46.5702   58.0151 C   0  0  0  0  0  0  0  0  0  0  0  0
    0.9644   47.3125   56.8584 C   0  0  0  0  0  0  0  0  0  0  0  0
    2.0410   48.1506   56.5527 C   0  0  0  0  0  0  0  0  0  0  0  0
    3.8940   50.5325   56.7704 C   0  0  0  0  0  0  0  0  0  0  0  0
    4.3809   50.9188   55.4130 C   0  0  0  0  0  0  0  0  0  0  0  0
    3.5403   48.9624   52.2866 C   0  0  0  0  0  0  0  0  0  0  0  0
    2.9627   49.0548   51.0383 C   0  0  0  0  0  0  0  0  0  0  0  0
  1  2  2  0
  2  3  1  0
  2  4  1  0
  4  5  1  6
  5  6  1  0
  6  7  2  0
  7  8  1  0
  8  9  1  0
  9 10  2  0
 10 11  1  0
 11 12  2  0
 12 13  1  0
 13 14  2  0
  4 15  1  0
 15 16  1  0
 16 17  2  0
 16 18  2  0
 16 19  1  0
 19 20  2  0
 20 21  1  0
 21 22  2  0
 22 23  1  0
 23 24  1  0
 24 25  1  0
 25 26  1  0
 26 27  1  0
 27 28  2  0
 28 29  1  0
 29 30  2  0
 30 31  1  0
 31 32  2  0
 26 33  1  0
 33 34  1  0
 22 35  1  0
 35 36  2  0
 14  6  1  0
 36 19  1  0
 14  9  1  0
 34 23  1  0
 32 27  1  0
M  CHG  1   3  -1
M  END
>  <shape_align_shape_tanimoto>  (2) 
0.49925678903939036

>  <shape_align_color_tanimoto>  (2) 
0.10062200073657654

>  <metric>  (2) 
color

>  <metric_score>  (2) 
0.101

>  <template_pid>  (2) 
1CAQ

>  <template_shape_score>  (2) 
0.499

>  <template_color_score>  (2) 
0.101

>  <template_combo_score>  (2) 
0.300

$$$$
1CAQ_combo_pose
     RDKit          3D

 36 40  0  0  0  0  0  0  0  0999 V2000
   -0.7818   53.5008   47.3431 O   0  0  0  0  0  0  0  0  0  0  0  0
   -1.1407   53.7213   48.5593 C   0  0  0  0  0  0  0  0  0  0  0  0
   -2.0622   54.6941   48.8001 O   0  0  0  0  0  0  0  0  0  0  0  0
   -0.4704   52.8693   49.6180 C   0  0  2  0  0  0  0  0  0  0  0  0
   -1.3880   52.8964   50.8210 C   0  0  0  0  0  0  0  0  0  0  0  0
   -2.7505   52.3624   50.4554 C   0  0  0  0  0  0  0  0  0  0  0  0
   -3.9289   53.1134   50.3309 C   0  0  0  0  0  0  0  0  0  0  0  0
   -4.9610   52.3200   49.9922 N   0  0  0  0  0  0  0  0  0  0  0  0
   -4.4962   51.0519   49.8901 C   0  0  0  0  0  0  0  0  0  0  0  0
   -5.0912   49.8462   49.5775 C   0  0  0  0  0  0  0  0  0  0  0  0
   -4.3672   48.6773   49.5453 C   0  0  0  0  0  0  0  0  0  0  0  0
   -3.0179   48.7168   49.8325 C   0  0  0  0  0  0  0  0  0  0  0  0
   -2.3837   49.9057   50.1500 C   0  0  0  0  0  0  0  0  0  0  0  0
   -3.1208   51.0714   50.1788 C   0  0  0  0  0  0  0  0  0  0  0  0
    0.8067   53.4288   49.7486 N   0  0  0  0  0  0  0  0  0  0  0  0
    2.2100   52.6043   49.4474 S   0  0  0  0  0  0  0  0  0  0  0  0
    3.3861   53.5514   49.5909 O   0  0  0  0  0  0  0  0  0  0  0  0
    2.3361   52.1026   48.0106 O   0  0  0  0  0  0  0  0  0  0  0  0
    2.4659   51.2841   50.5442 C   0  0  0  0  0  0  0  0  0  0  0  0
    1.8738   50.0379   50.4634 C   0  0  0  0  0  0  0  0  0  0  0  0
    2.1745   49.0378   51.3632 C   0  0  0  0  0  0  0  0  0  0  0  0
    3.0827   49.2079   52.4031 C   0  0  0  0  0  0  0  0  0  0  0  0
    3.4341   48.2562   53.3625 N   0  0  0  0  0  0  0  0  0  0  0  0
    4.6249   48.3825   54.2397 C   0  0  0  0  0  0  0  0  0  0  0  0
    4.1125   48.7355   55.6345 C   0  0  0  0  0  0  0  0  0  0  0  0
    2.7165   48.1953   55.8524 C   0  0  0  0  0  0  0  0  0  0  0  0
    2.3890   48.2277   57.2978 C   0  0  0  0  0  0  0  0  0  0  0  0
    3.1160   47.5093   58.2256 C   0  0  0  0  0  0  0  0  0  0  0  0
    2.8235   47.5660   59.5879 C   0  0  0  0  0  0  0  0  0  0  0  0
    1.7656   48.3613   60.0536 C   0  0  0  0  0  0  0  0  0  0  0  0
    1.0346   49.0751   59.1142 C   0  0  0  0  0  0  0  0  0  0  0  0
    1.3597   48.9870   57.7923 C   0  0  0  0  0  0  0  0  0  0  0  0
    2.5394   46.8792   55.1751 C   0  0  0  0  0  0  0  0  0  0  0  0
    2.6563   47.0545   53.6616 C   0  0  0  0  0  0  0  0  0  0  0  0
    3.6843   50.4751   52.4844 C   0  0  0  0  0  0  0  0  0  0  0  0
    3.3855   51.4685   51.5887 C   0  0  0  0  0  0  0  0  0  0  0  0
  1  2  2  0
  2  3  1  0
  2  4  1  0
  4  5  1  1
  5  6  1  0
  6  7  2  0
  7  8  1  0
  8  9  1  0
  9 10  2  0
 10 11  1  0
 11 12  2  0
 12 13  1  0
 13 14  2  0
  4 15  1  0
 15 16  1  0
 16 17  2  0
 16 18  2  0
 16 19  1  0
 19 20  2  0
 20 21  1  0
 21 22  2  0
 22 23  1  0
 23 24  1  0
 24 25  1  0
 25 26  1  0
 26 27  1  0
 27 28  2  0
 28 29  1  0
 29 30  2  0
 30 31  1  0
 31 32  2  0
 26 33  1  0
 33 34  1  0
 22 35  1  0
 35 36  2  0
 14  6  1  0
 36 19  1  0
 14  9  1  0
 34 23  1  0
 32 27  1  0
M  CHG  1   3  -1
M  END
>  <shape_align_shape_tanimoto>  (3) 
0.52679101369453141

>  <shape_align_color_tanimoto>  (3) 
0.096151856506885264

>  <metric>  (3) 
combo

>  <metric_score>  (3) 
0.311

>  <template_pid>  (3) 
1CAQ

>  <template_shape_score>  (3) 
0.527

>  <template_color_score>  (3) 
0.096

>  <template_combo_score>  (3) 
0.311

$$$$
