4J84_shape_pose
     RDKit          3D

 42 41  0  0  0  0  0  0  0  0999 V2000
   -3.6153   -2.6797   22.2995 C   0  0  0  0  0  0  0  0  0  0  0  0
   -3.9482   -2.5328   20.8749 C   0  0  0  0  0  0  0  0  0  0  0  0
   -3.2621   -3.7043   20.1235 C   0  0  0  0  0  0  0  0  0  0  0  0
   -3.7351   -1.2817   20.1701 C   0  0  0  0  0  0  0  0  0  0  0  0
   -4.4067   -0.0251   20.5144 C   0  0  2  0  0  0  0  0  0  0  0  0
   -3.9303    1.0299   19.5621 N   0  0  0  0  0  0  0  0  0  0  0  0
   -4.8078    1.5961   18.6162 C   0  0  0  0  0  0  0  0  0  0  0  0
   -6.0060    1.2007   18.5942 O   0  0  0  0  0  0  0  0  0  0  0  0
   -4.3873    2.6436   17.6399 C   0  0  2  0  0  0  0  0  0  0  0  0
   -4.9827    2.4834   16.2733 C   0  0  0  0  0  0  0  0  0  0  0  0
   -4.4971    3.5943   15.3382 C   0  0  0  0  0  0  0  0  0  0  0  0
   -4.8831    4.9512   15.8391 C   0  0  0  0  0  0  0  0  0  0  0  0
   -4.3287    5.9795   14.8465 C   0  0  0  0  0  0  0  0  0  0  0  0
   -4.8769    5.7646   13.5314 N   0  0  0  0  0  0  0  0  0  0  0  0
   -2.9748    2.8919   17.6259 N   0  0  0  0  0  0  0  0  0  0  0  0
   -1.9874    1.8714   17.4050 C   0  0  0  0  0  0  0  0  0  0  0  0
   -2.2994    0.6648   17.2002 O   0  0  0  0  0  0  0  0  0  0  0  0
   -0.5345    2.2581   17.4225 C   0  0  2  0  0  0  0  0  0  0  0  0
   -0.2519    3.1395   16.2128 C   0  0  0  0  0  0  0  0  0  0  0  0
   -0.5396    2.3846   14.9243 C   0  0  0  0  0  0  0  0  0  0  0  0
   -0.2938    3.2610   13.7261 C   0  0  0  0  0  0  0  0  0  0  0  0
    1.0399    3.7664   13.5827 N   0  0  0  0  0  0  0  0  0  0  0  0
    2.1957    3.0413   13.2893 C   0  0  0  0  0  0  0  0  0  0  0  0
    3.4397    3.7715   13.1986 N   0  0  0  0  0  0  0  0  0  0  0  0
    2.2131    1.7746   13.0960 N   0  0  0  0  0  0  0  0  0  0  0  0
    0.3210    1.0950   17.3168 N   0  0  0  0  0  0  0  0  0  0  0  0
    1.3027    0.9070   18.3108 C   0  0  0  0  0  0  0  0  0  0  0  0
    1.3577    1.7834   19.2301 O   0  0  0  0  0  0  0  0  0  0  0  0
    2.2569   -0.2195   18.3580 C   0  0  2  0  0  0  0  0  0  0  0  0
    3.6526    0.3849   18.1988 C   0  0  0  0  0  0  0  0  0  0  0  0
    2.1087   -1.1607   17.2727 N   0  0  0  0  0  0  0  0  0  0  0  0
   -4.0661    0.5455   21.8208 C   0  0  0  0  0  0  0  0  0  0  0  0
   -3.2080    1.4991   21.8006 O   0  0  0  0  0  0  0  0  0  0  0  0
   -4.5778    0.1748   23.0853 N   0  0  0  0  0  0  0  0  0  0  0  0
   -4.1166    0.8653   24.2420 C   0  0  1  0  0  0  0  0  0  0  0  0
   -5.1663    1.7230   24.9190 C   0  0  0  0  0  0  0  0  0  0  0  0
   -5.6642    2.7398   23.9566 C   0  0  0  0  0  0  0  0  0  0  0  0
   -5.9722    2.4000   22.7574 O   0  0  0  0  0  0  0  0  0  0  0  0
   -5.8050    4.0967   24.3444 O   0  0  0  0  0  0  0  0  0  0  0  0
   -3.4933   -0.0743   25.1844 C   0  0  0  0  0  0  0  0  0  0  0  0
   -3.6288   -1.3137   25.1849 O   0  0  0  0  0  0  0  0  0  0  0  0
   -2.6661    0.4879   26.1783 O   0  0  0  0  0  0  0  0  0  0  0  0
  1  2  1  0
  2  3  1  0
  2  4  1  0
  5  4  1  6
  5  6  1  0
  6  7  1  0
  7  8  2  0
  7  9  1  0
  9 10  1  6
 10 11  1  0
 11 12  1  0
 12 13  1  0
 13 14  1  0
  9 15  1  0
 15 16  1  0
 16 17  2  0
 16 18  1  0
 18 19  1  6
 19 20  1  0
 20 21  1  0
 21 22  1  0
 22 23  1  0
 23 24  1  0
 23 25  2  0
 18 26  1  0
 26 27  1  0
 27 28  2  0
 27 29  1  0
 29 30  1  6
 29 31  1  0
  5 32  1  0
 32 33  2  0
 32 34  1  0
 34 35  1  0
 35 36  1  1
 36 37  1  0
 37 38  2  0
 37 39  1  0
 35 40  1  0
 40 41  2  0
 40 42  1  0
M  CHG  5  14   1  25   1  31   1  39  -1  42  -1
M  END
>  <shape_align_shape_tanimoto>  (1) 
0.45104424525591352

>  <shape_align_color_tanimoto>  (1) 
0.02126389692071548

>  <metric>  (1) 
shape

>  <metric_score>  (1) 
0.451

>  <template_pid>  (1) 
4J84

>  <template_shape_score>  (1) 
0.451

>  <template_color_score>  (1) 
0.021

>  <template_combo_score>  (1) 
0.236

$$$$
4J84_color_pose
     RDKit          3D

 42 41  0  0  0  0  0  0  0  0999 V2000
   -3.0249   -3.3793   18.6042 C   0  0  0  0  0  0  0  0  0  0  0  0
   -3.0174   -2.1056   19.4733 C   0  0  0  0  0  0  0  0  0  0  0  0
   -2.3907   -2.4881   20.7620 C   0  0  0  0  0  0  0  0  0  0  0  0
   -4.3662   -1.5125   19.4996 C   0  0  0  0  0  0  0  0  0  0  0  0
   -4.5981   -0.2627   20.2930 C   0  0  2  0  0  0  0  0  0  0  0  0
   -3.8389    0.8681   19.9382 N   0  0  0  0  0  0  0  0  0  0  0  0
   -4.1230    1.7044   18.8165 C   0  0  0  0  0  0  0  0  0  0  0  0
   -5.1415    1.3452   18.1293 O   0  0  0  0  0  0  0  0  0  0  0  0
   -3.3449    2.8818   18.4173 C   0  0  2  0  0  0  0  0  0  0  0  0
   -3.7489    4.2216   18.9030 C   0  0  0  0  0  0  0  0  0  0  0  0
   -3.8258    4.6010   20.3108 C   0  0  0  0  0  0  0  0  0  0  0  0
   -4.8039    3.9452   21.2112 C   0  0  0  0  0  0  0  0  0  0  0  0
   -4.6573    4.6112   22.5836 C   0  0  0  0  0  0  0  0  0  0  0  0
   -5.6011    4.0291   23.5231 N   0  0  0  0  0  0  0  0  0  0  0  0
   -3.4173    2.9921   16.9134 N   0  0  0  0  0  0  0  0  0  0  0  0
   -2.2018    2.8119   16.2183 C   0  0  0  0  0  0  0  0  0  0  0  0
   -1.0929    2.5698   16.7831 O   0  0  0  0  0  0  0  0  0  0  0  0
   -2.1163    2.8955   14.7014 C   0  0  2  0  0  0  0  0  0  0  0  0
   -3.0748    1.8937   14.1850 C   0  0  0  0  0  0  0  0  0  0  0  0
   -3.2323    1.7119   12.7336 C   0  0  0  0  0  0  0  0  0  0  0  0
   -3.7156    2.8371   11.8972 C   0  0  0  0  0  0  0  0  0  0  0  0
   -2.9179    4.0095   11.7955 N   0  0  0  0  0  0  0  0  0  0  0  0
   -3.4355    5.0841   10.9866 C   0  0  0  0  0  0  0  0  0  0  0  0
   -2.6803    6.2794   10.8473 N   0  0  0  0  0  0  0  0  0  0  0  0
   -4.5715    4.9896   10.3799 N   0  0  0  0  0  0  0  0  0  0  0  0
   -0.7779    2.6564   14.2791 N   0  0  0  0  0  0  0  0  0  0  0  0
    0.1910    3.6181   13.9249 C   0  0  0  0  0  0  0  0  0  0  0  0
   -0.0054    4.8674   13.9368 O   0  0  0  0  0  0  0  0  0  0  0  0
    1.5482    3.1761   13.5041 C   0  0  2  0  0  0  0  0  0  0  0  0
    2.1854    2.2161   14.4819 C   0  0  0  0  0  0  0  0  0  0  0  0
    2.4024    4.3042   13.1926 N   0  0  0  0  0  0  0  0  0  0  0  0
   -4.6132   -0.4882   21.7376 C   0  0  0  0  0  0  0  0  0  0  0  0
   -5.2589   -1.5213   22.1465 O   0  0  0  0  0  0  0  0  0  0  0  0
   -4.0025    0.2884   22.7290 N   0  0  0  0  0  0  0  0  0  0  0  0
   -4.0581   -0.0329   24.1287 C   0  0  1  0  0  0  0  0  0  0  0  0
   -2.6860   -0.3340   24.6948 C   0  0  0  0  0  0  0  0  0  0  0  0
   -2.8524   -0.6605   26.1312 C   0  0  0  0  0  0  0  0  0  0  0  0
   -3.9638   -0.6840   26.7214 O   0  0  0  0  0  0  0  0  0  0  0  0
   -1.6602   -0.9539   26.8294 O   0  0  0  0  0  0  0  0  0  0  0  0
   -4.7829    0.9619   24.9567 C   0  0  0  0  0  0  0  0  0  0  0  0
   -4.0872    1.7167   25.7008 O   0  0  0  0  0  0  0  0  0  0  0  0
   -6.1769    1.0450   24.9035 O   0  0  0  0  0  0  0  0  0  0  0  0
  1  2  1  0
  2  3  1  0
  2  4  1  0
  5  4  1  6
  5  6  1  0
  6  7  1  0
  7  8  2  0
  7  9  1  0
  9 10  1  1
 10 11  1  0
 11 12  1  0
 12 13  1  0
 13 14  1  0
  9 15  1  0
 15 16  1  0
 16 17  2  0
 16 18  1  0
 18 19  1  6
 19 20  1  0
 20 21  1  0
 21 22  1  0
 22 23  1  0
 23 24  1  0
 23 25  2  0
 18 26  1  0
 26 27  1  0
 27 28  2  0
 27 29  1  0
 29 30  1  1
 29 31  1  0
  5 32  1  0
 32 33  2  0
 32 34  1  0
 34 35  1  0
 35 36  1  1
 36 37  1  0
 37 38  2  0
 37 39  1  0
 35 40  1  0
 40 41  2  0
 40 42  1  0
M  CHG  5  14   1  25   1  31   1  39  -1  42  -1
M  END
>  <shape_align_shape_tanimoto>  (2) 
0.40568603345942766

>  <shape_align_color_tanimoto>  (2) 
0.08608853409875955

>  <metric>  (2) 
color

>  <metric_score>  (2) 
0.086

>  <template_pid>  (2) 
4J84

>  <template_shape_score>  (2) 
0.406

>  <template_color_score>  (2) 
0.086

>  <template_combo_score>  (2) 
0.246

$$$$
4J84_combo_pose
     RDKit          3D

 42 41  0  0  0  0  0  0  0  0999 V2000
   -5.4441    5.9611   15.0775 C   0  0  0  0  0  0  0  0  0  0  0  0
   -5.2572    4.4733   15.4107 C   0  0  0  0  0  0  0  0  0  0  0  0
   -6.0143    3.7144   14.3559 C   0  0  0  0  0  0  0  0  0  0  0  0
   -3.7890    4.2382   15.4226 C   0  0  0  0  0  0  0  0  0  0  0  0
   -3.3751    2.8181   15.7368 C   0  0  2  0  0  0  0  0  0  0  0  0
   -3.8271    2.3858   17.0304 N   0  0  0  0  0  0  0  0  0  0  0  0
   -4.7275    1.3224   17.2648 C   0  0  0  0  0  0  0  0  0  0  0  0
   -5.1608    0.7215   16.2226 O   0  0  0  0  0  0  0  0  0  0  0  0
   -5.2051    0.8504   18.5563 C   0  0  2  0  0  0  0  0  0  0  0  0
   -6.6896    0.6600   18.6196 C   0  0  0  0  0  0  0  0  0  0  0  0
   -7.5658    1.8085   18.3499 C   0  0  0  0  0  0  0  0  0  0  0  0
   -7.4233    2.9887   19.2421 C   0  0  0  0  0  0  0  0  0  0  0  0
   -8.4296    4.0695   18.8507 C   0  0  0  0  0  0  0  0  0  0  0  0
   -8.2834    5.2259   19.7341 N   0  0  0  0  0  0  0  0  0  0  0  0
   -4.6124    1.4850   19.7004 N   0  0  0  0  0  0  0  0  0  0  0  0
   -4.0894    0.6669   20.7501 C   0  0  0  0  0  0  0  0  0  0  0  0
   -4.1624   -0.6137   20.6620 O   0  0  0  0  0  0  0  0  0  0  0  0
   -3.4518    1.1747   21.9779 C   0  0  2  0  0  0  0  0  0  0  0  0
   -2.0374    1.6853   21.7929 C   0  0  0  0  0  0  0  0  0  0  0  0
   -1.9860    2.8109   20.7924 C   0  0  0  0  0  0  0  0  0  0  0  0
   -0.5786    3.3596   20.6476 C   0  0  0  0  0  0  0  0  0  0  0  0
   -0.0023    3.8877   21.8403 N   0  0  0  0  0  0  0  0  0  0  0  0
   -0.4062    5.0461   22.5326 C   0  0  0  0  0  0  0  0  0  0  0  0
    0.3202    5.3855   23.7313 N   0  0  0  0  0  0  0  0  0  0  0  0
   -1.3694    5.8054   22.1702 N   0  0  0  0  0  0  0  0  0  0  0  0
   -3.3593   -0.0437   22.8463 N   0  0  0  0  0  0  0  0  0  0  0  0
   -3.7951    0.1350   24.1658 C   0  0  0  0  0  0  0  0  0  0  0  0
   -4.2291    1.1935   24.6428 O   0  0  0  0  0  0  0  0  0  0  0  0
   -3.7344   -1.0478   25.0905 C   0  0  2  0  0  0  0  0  0  0  0  0
   -4.9616   -1.8866   24.6896 C   0  0  0  0  0  0  0  0  0  0  0  0
   -4.0302   -0.5464   26.4233 N   0  0  0  0  0  0  0  0  0  0  0  0
   -1.8807    2.8089   15.7812 C   0  0  0  0  0  0  0  0  0  0  0  0
   -1.2958    2.4359   16.8363 O   0  0  0  0  0  0  0  0  0  0  0  0
   -1.1684    3.2268   14.6181 N   0  0  0  0  0  0  0  0  0  0  0  0
    0.2640    3.2674   14.5233 C   0  0  1  0  0  0  0  0  0  0  0  0
    0.8458    2.4362   13.4213 C   0  0  0  0  0  0  0  0  0  0  0  0
    2.3348    2.5903   13.4635 C   0  0  0  0  0  0  0  0  0  0  0  0
    2.8980    3.3248   14.3387 O   0  0  0  0  0  0  0  0  0  0  0  0
    3.1713    1.9532   12.5680 O   0  0  0  0  0  0  0  0  0  0  0  0
    0.7715    4.6766   14.4899 C   0  0  0  0  0  0  0  0  0  0  0  0
    1.2663    5.1961   13.4615 O   0  0  0  0  0  0  0  0  0  0  0  0
    0.7067    5.4685   15.6263 O   0  0  0  0  0  0  0  0  0  0  0  0
  1  2  1  0
  2  3  1  0
  2  4  1  0
  5  4  1  1
  5  6  1  0
  6  7  1  0
  7  8  2  0
  7  9  1  0
  9 10  1  6
 10 11  1  0
 11 12  1  0
 12 13  1  0
 13 14  1  0
  9 15  1  0
 15 16  1  0
 16 17  2  0
 16 18  1  0
 18 19  1  6
 19 20  1  0
 20 21  1  0
 21 22  1  0
 22 23  1  0
 23 24  1  0
 23 25  2  0
 18 26  1  0
 26 27  1  0
 27 28  2  0
 27 29  1  0
 29 30  1  6
 29 31  1  0
  5 32  1  0
 32 33  2  0
 32 34  1  0
 34 35  1  0
 35 36  1  6
 36 37  1  0
 37 38  2  0
 37 39  1  0
 35 40  1  0
 40 41  2  0
 40 42  1  0
M  CHG  5  14   1  25   1  31   1  39  -1  42  -1
M  END
>  <shape_align_shape_tanimoto>  (3) 
0.44506493837138378

>  <shape_align_color_tanimoto>  (3) 
0.070533568698865554

>  <metric>  (3) 
combo

>  <metric_score>  (3) 
0.258

>  <template_pid>  (3) 
4J84

>  <template_shape_score>  (3) 
0.445

>  <template_color_score>  (3) 
0.071

>  <template_combo_score>  (3) 
0.258

$$$$
