5EHG_shape_pose
     RDKit          3D

 31 33  0  0  0  0  0  0  0  0999 V2000
  -36.3919    0.3062   -1.4341 N   0  0  0  0  0  0  0  0  0  0  0  0
  -37.0735    0.5728   -0.2210 C   0  0  0  0  0  0  0  0  0  0  0  0
  -37.5876   -0.5597    0.4292 C   0  0  0  0  0  0  0  0  0  0  0  0
  -38.2430   -0.4579    1.6341 C   0  0  0  0  0  0  0  0  0  0  0  0
  -38.8764   -1.8833    2.4275 Cl  0  0  0  0  0  0  0  0  0  0  0  0
  -38.3711    0.8007    2.1714 C   0  0  0  0  0  0  0  0  0  0  0  0
  -37.8681    1.9078    1.5340 C   0  0  0  0  0  0  0  0  0  0  0  0
  -37.1981    1.8258    0.3059 C   0  0  0  0  0  0  0  0  0  0  0  0
  -36.7116    3.0266   -0.2258 N   0  0  0  0  0  0  0  0  0  0  0  0
  -36.4672    3.3581   -1.5651 C   0  0  0  0  0  0  0  0  0  0  0  0
  -36.6794    2.6037   -2.5247 O   0  0  0  0  0  0  0  0  0  0  0  0
  -35.9356    4.6519   -1.8740 N   0  0  0  0  0  0  0  0  0  0  0  0
  -35.6791    5.0064   -3.2502 C   0  0  0  0  0  0  0  0  0  0  0  0
  -36.6768    5.6119   -3.9999 C   0  0  0  0  0  0  0  0  0  0  0  0
  -36.3618    5.9277   -5.3221 C   0  0  0  0  0  0  0  0  0  0  0  0
  -35.1270    5.6567   -5.8648 C   0  0  0  0  0  0  0  0  0  0  0  0
  -34.1559    5.0511   -5.0850 C   0  0  0  0  0  0  0  0  0  0  0  0
  -32.5640    4.6857   -5.7357 S   0  0  0  0  0  0  0  0  0  0  0  0
  -32.7159    4.3378   -7.1907 O   0  0  0  0  0  0  0  0  0  0  0  0
  -31.9935    3.4518   -5.0521 O   0  0  0  0  0  0  0  0  0  0  0  0
  -31.4726    5.9653   -5.5132 O   0  0  0  0  0  0  0  0  0  0  0  0
  -31.9337    7.2531   -5.7483 C   0  0  0  0  0  0  0  0  0  0  0  0
  -32.5060    8.0179   -4.7536 C   0  0  0  0  0  0  0  0  0  0  0  0
  -32.9414    9.3050   -5.0852 C   0  0  0  0  0  0  0  0  0  0  0  0
  -32.8002    9.7875   -6.3668 C   0  0  0  0  0  0  0  0  0  0  0  0
  -33.2788   11.1523   -6.6545 C   0  0  0  0  0  0  0  0  0  0  0  0
  -33.8045   11.8718   -5.7667 O   0  0  0  0  0  0  0  0  0  0  0  0
  -33.1440   11.6577   -7.9474 O   0  0  0  0  0  0  0  0  0  0  0  0
  -32.2215    9.0184   -7.3796 C   0  0  0  0  0  0  0  0  0  0  0  0
  -31.7854    7.7306   -7.0493 C   0  0  0  0  0  0  0  0  0  0  0  0
  -34.4297    4.7214   -3.7663 C   0  0  0  0  0  0  0  0  0  0  0  0
  1  2  1  0
  2  3  2  0
  3  4  1  0
  4  5  1  0
  4  6  2  0
  6  7  1  0
  7  8  2  0
  8  9  1  0
  9 10  1  0
 10 11  2  0
 10 12  1  0
 12 13  1  0
 13 14  2  0
 14 15  1  0
 15 16  2  0
 16 17  1  0
 17 18  1  0
 18 19  2  0
 18 20  2  0
 18 21  1  0
 21 22  1  0
 22 23  2  0
 23 24  1  0
 24 25  2  0
 25 26  1  0
 26 27  2  0
 26 28  1  0
 25 29  1  0
 29 30  2  0
 17 31  2  0
  8  2  1  0
 31 13  1  0
 30 22  1  0
M  CHG  1  28  -1
M  END
>  <shape_align_shape_tanimoto>  (1) 
0.51979905069723886

>  <shape_align_color_tanimoto>  (1) 
0.035698569207194164

>  <metric>  (1) 
shape

>  <metric_score>  (1) 
0.520

>  <template_pid>  (1) 
5EHG

>  <template_shape_score>  (1) 
0.520

>  <template_color_score>  (1) 
0.036

>  <template_combo_score>  (1) 
0.278

$$$$
5EHG_color_pose
     RDKit          3D

 31 33  0  0  0  0  0  0  0  0999 V2000
  -29.8087    3.0514   -4.3626 N   0  0  0  0  0  0  0  0  0  0  0  0
  -30.1036    4.1520   -3.5076 C   0  0  0  0  0  0  0  0  0  0  0  0
  -29.5031    5.3872   -3.7002 C   0  0  0  0  0  0  0  0  0  0  0  0
  -29.7922    6.4484   -2.8700 C   0  0  0  0  0  0  0  0  0  0  0  0
  -29.0122    8.0038   -3.1420 Cl  0  0  0  0  0  0  0  0  0  0  0  0
  -30.6814    6.2792   -1.8456 C   0  0  0  0  0  0  0  0  0  0  0  0
  -31.2921    5.0723   -1.6277 C   0  0  0  0  0  0  0  0  0  0  0  0
  -31.0008    4.0080   -2.4621 C   0  0  0  0  0  0  0  0  0  0  0  0
  -31.5959    2.7201   -2.2995 N   0  0  0  0  0  0  0  0  0  0  0  0
  -32.8307    2.5187   -3.0204 C   0  0  0  0  0  0  0  0  0  0  0  0
  -33.2408    3.4633   -3.6930 O   0  0  0  0  0  0  0  0  0  0  0  0
  -33.4975    1.2967   -2.9329 N   0  0  0  0  0  0  0  0  0  0  0  0
  -34.7072    0.9386   -3.5702 C   0  0  0  0  0  0  0  0  0  0  0  0
  -35.2195   -0.3334   -3.3604 C   0  0  0  0  0  0  0  0  0  0  0  0
  -36.3933   -0.7494   -3.9494 C   0  0  0  0  0  0  0  0  0  0  0  0
  -37.1256    0.0723   -4.7797 C   0  0  0  0  0  0  0  0  0  0  0  0
  -36.6319    1.3368   -4.9985 C   0  0  0  0  0  0  0  0  0  0  0  0
  -37.5123    2.4435   -6.0475 S   0  0  0  0  0  0  0  0  0  0  0  0
  -38.1208    1.7102   -7.2070 O   0  0  0  0  0  0  0  0  0  0  0  0
  -36.4880    3.3860   -6.6210 O   0  0  0  0  0  0  0  0  0  0  0  0
  -38.6305    3.3632   -5.1865 O   0  0  0  0  0  0  0  0  0  0  0  0
  -38.9147    4.6449   -5.6402 C   0  0  0  0  0  0  0  0  0  0  0  0
  -38.1205    5.6690   -5.1323 C   0  0  0  0  0  0  0  0  0  0  0  0
  -38.3056    6.9905   -5.5081 C   0  0  0  0  0  0  0  0  0  0  0  0
  -39.3117    7.2644   -6.4108 C   0  0  0  0  0  0  0  0  0  0  0  0
  -39.5547    8.6291   -6.8432 C   0  0  0  0  0  0  0  0  0  0  0  0
  -40.4493    8.9195   -7.6537 O   0  0  0  0  0  0  0  0  0  0  0  0
  -38.7684    9.6671   -6.3442 O   0  0  0  0  0  0  0  0  0  0  0  0
  -40.1148    6.2547   -6.9286 C   0  0  0  0  0  0  0  0  0  0  0  0
  -39.9178    4.9260   -6.5415 C   0  0  0  0  0  0  0  0  0  0  0  0
  -35.4370    1.7569   -4.3974 C   0  0  0  0  0  0  0  0  0  0  0  0
  1  2  1  0
  2  3  2  0
  3  4  1  0
  4  5  1  0
  4  6  2  0
  6  7  1  0
  7  8  2  0
  8  9  1  0
  9 10  1  0
 10 11  2  0
 10 12  1  0
 12 13  1  0
 13 14  2  0
 14 15  1  0
 15 16  2  0
 16 17  1  0
 17 18  1  0
 18 19  2  0
 18 20  2  0
 18 21  1  0
 21 22  1  0
 22 23  2  0
 23 24  1  0
 24 25  2  0
 25 26  1  0
 26 27  2  0
 26 28  1  0
 25 29  1  0
 29 30  2  0
 17 31  2  0
  8  2  1  0
 31 13  1  0
 30 22  1  0
M  CHG  1  28  -1
M  END
>  <shape_align_shape_tanimoto>  (2) 
0.35131228382162499

>  <shape_align_color_tanimoto>  (2) 
0.096975035807747634

>  <metric>  (2) 
color

>  <metric_score>  (2) 
0.097

>  <template_pid>  (2) 
5EHG

>  <template_shape_score>  (2) 
0.351

>  <template_color_score>  (2) 
0.097

>  <template_combo_score>  (2) 
0.224

$$$$
5EHG_combo_pose
     RDKit          3D

 31 33  0  0  0  0  0  0  0  0999 V2000
  -39.8146    1.9392   -4.7215 N   0  0  0  0  0  0  0  0  0  0  0  0
  -39.8448    1.9916   -6.1294 C   0  0  0  0  0  0  0  0  0  0  0  0
  -40.2612    0.9054   -6.8801 C   0  0  0  0  0  0  0  0  0  0  0  0
  -40.2696    1.0154   -8.2556 C   0  0  0  0  0  0  0  0  0  0  0  0
  -40.8039   -0.3835   -9.1697 Cl  0  0  0  0  0  0  0  0  0  0  0  0
  -39.8831    2.1564   -8.9274 C   0  0  0  0  0  0  0  0  0  0  0  0
  -39.4649    3.2458   -8.1559 C   0  0  0  0  0  0  0  0  0  0  0  0
  -39.4474    3.1593   -6.7610 C   0  0  0  0  0  0  0  0  0  0  0  0
  -39.0083    4.3085   -6.0090 N   0  0  0  0  0  0  0  0  0  0  0  0
  -37.6197    4.4485   -5.6822 C   0  0  0  0  0  0  0  0  0  0  0  0
  -36.8560    3.5477   -6.0766 O   0  0  0  0  0  0  0  0  0  0  0  0
  -37.1621    5.5738   -4.9409 N   0  0  0  0  0  0  0  0  0  0  0  0
  -35.7469    5.6096   -4.6706 C   0  0  0  0  0  0  0  0  0  0  0  0
  -34.8820    6.2327   -5.5719 C   0  0  0  0  0  0  0  0  0  0  0  0
  -33.5222    6.2475   -5.2774 C   0  0  0  0  0  0  0  0  0  0  0  0
  -33.0354    5.6632   -4.1260 C   0  0  0  0  0  0  0  0  0  0  0  0
  -33.8879    5.0467   -3.2335 C   0  0  0  0  0  0  0  0  0  0  0  0
  -33.1871    4.3358   -1.8070 S   0  0  0  0  0  0  0  0  0  0  0  0
  -34.0231    3.1803   -1.3001 O   0  0  0  0  0  0  0  0  0  0  0  0
  -31.8341    3.7844   -2.1508 O   0  0  0  0  0  0  0  0  0  0  0  0
  -33.1523    5.4936   -0.5856 O   0  0  0  0  0  0  0  0  0  0  0  0
  -33.3095    6.8477   -0.8495 C   0  0  0  0  0  0  0  0  0  0  0  0
  -32.1700    7.6079   -1.1175 C   0  0  0  0  0  0  0  0  0  0  0  0
  -32.2240    8.9513   -1.3893 C   0  0  0  0  0  0  0  0  0  0  0  0
  -33.4677    9.5533   -1.3919 C   0  0  0  0  0  0  0  0  0  0  0  0
  -33.5289   10.9819   -1.6805 C   0  0  0  0  0  0  0  0  0  0  0  0
  -32.4915   11.6736   -1.9245 O   0  0  0  0  0  0  0  0  0  0  0  0
  -34.7338   11.6710   -1.7050 O   0  0  0  0  0  0  0  0  0  0  0  0
  -34.6252    8.8284   -1.1294 C   0  0  0  0  0  0  0  0  0  0  0  0
  -34.5331    7.4753   -0.8594 C   0  0  0  0  0  0  0  0  0  0  0  0
  -35.2407    5.0207   -3.5065 C   0  0  0  0  0  0  0  0  0  0  0  0
  1  2  1  0
  2  3  2  0
  3  4  1  0
  4  5  1  0
  4  6  2  0
  6  7  1  0
  7  8  2  0
  8  9  1  0
  9 10  1  0
 10 11  2  0
 10 12  1  0
 12 13  1  0
 13 14  2  0
 14 15  1  0
 15 16  2  0
 16 17  1  0
 17 18  1  0
 18 19  2  0
 18 20  2  0
 18 21  1  0
 21 22  1  0
 22 23  2  0
 23 24  1  0
 24 25  2  0
 25 26  1  0
 26 27  2  0
 26 28  1  0
 25 29  1  0
 29 30  2  0
 17 31  2  0
  8  2  1  0
 31 13  1  0
 30 22  1  0
M  CHG  1  28  -1
M  END
>  <shape_align_shape_tanimoto>  (3) 
0.4973311408948255

>  <shape_align_color_tanimoto>  (3) 
0.058412885376659326

>  <metric>  (3) 
combo

>  <metric_score>  (3) 
0.278

>  <template_pid>  (3) 
5EHG

>  <template_shape_score>  (3) 
0.497

>  <template_color_score>  (3) 
0.058

>  <template_combo_score>  (3) 
0.278

$$$$
