3AZ9_shape_pose
     RDKit          3D

 20 22  0  0  0  0  0  0  0  0999 V2000
   -5.7222   20.2290  -33.8884 O   0  0  0  0  0  0  0  0  0  0  0  0
   -5.9027   19.3951  -32.7819 C   0  0  0  0  0  0  0  0  0  0  0  0
   -6.9263   19.6919  -31.9357 C   0  0  0  0  0  0  0  0  0  0  0  0
   -7.1465   18.9051  -30.8348 C   0  0  0  0  0  0  0  0  0  0  0  0
   -6.3441   17.8233  -30.5808 C   0  0  0  0  0  0  0  0  0  0  0  0
   -6.6377   16.8226  -29.1652 Cl  0  0  0  0  0  0  0  0  0  0  0  0
   -5.3181   17.5503  -31.4554 C   0  0  0  0  0  0  0  0  0  0  0  0
   -5.0339   18.2913  -32.5799 C   0  0  0  0  0  0  0  0  0  0  0  0
   -4.0863   18.1210  -33.4760 O   0  0  0  0  0  0  0  0  0  0  0  0
   -3.0519   17.3828  -33.8576 C   0  0  0  0  0  0  0  0  0  0  0  0
   -2.5129   16.2660  -33.2657 C   0  0  0  0  0  0  0  0  0  0  0  0
   -1.4243   15.5757  -33.7608 C   0  0  0  0  0  0  0  0  0  0  0  0
   -0.8420   16.0308  -34.9160 C   0  0  0  0  0  0  0  0  0  0  0  0
    0.5361   15.1563  -35.5421 Cl  0  0  0  0  0  0  0  0  0  0  0  0
   -1.3262   17.1401  -35.5624 C   0  0  0  0  0  0  0  0  0  0  0  0
   -0.6980   17.5507  -36.7218 C   0  0  0  0  0  0  0  0  0  0  0  0
   -1.1630   18.6633  -37.3936 C   0  0  0  0  0  0  0  0  0  0  0  0
   -2.2528   19.3081  -36.8480 C   0  0  0  0  0  0  0  0  0  0  0  0
   -2.8444   18.8859  -35.7177 N   0  0  0  0  0  0  0  0  0  0  0  0
   -2.3957   17.7898  -35.0451 C   0  0  0  0  0  0  0  0  0  0  0  0
  1  2  1  0
  2  3  2  0
  3  4  1  0
  4  5  2  0
  5  6  1  0
  5  7  1  0
  7  8  2  0
  8  9  1  0
  9 10  1  0
 10 11  2  0
 11 12  1  0
 12 13  2  0
 13 14  1  0
 13 15  1  0
 15 16  2  0
 16 17  1  0
 17 18  2  0
 18 19  1  0
 19 20  2  0
  8  2  1  0
 20 10  1  0
 20 15  1  0
M  END
>  <shape_align_shape_tanimoto>  (1) 
0.59981249781965673

>  <shape_align_color_tanimoto>  (1) 
0.044720885873272602

>  <metric>  (1) 
shape

>  <metric_score>  (1) 
0.600

>  <template_pid>  (1) 
3AZ9

>  <template_shape_score>  (1) 
0.600

>  <template_color_score>  (1) 
0.045

>  <template_combo_score>  (1) 
0.322

$$$$
3AZ9_color_pose
     RDKit          3D

 20 22  0  0  0  0  0  0  0  0999 V2000
   -6.6226   14.6663  -29.9320 O   0  0  0  0  0  0  0  0  0  0  0  0
   -6.5328   15.4086  -28.7705 C   0  0  0  0  0  0  0  0  0  0  0  0
   -6.5761   14.7877  -27.5307 C   0  0  0  0  0  0  0  0  0  0  0  0
   -6.4877   15.5176  -26.3498 C   0  0  0  0  0  0  0  0  0  0  0  0
   -6.3567   16.8677  -26.4538 C   0  0  0  0  0  0  0  0  0  0  0  0
   -6.2421   17.8242  -24.9846 Cl  0  0  0  0  0  0  0  0  0  0  0  0
   -6.3144   17.4754  -27.6761 C   0  0  0  0  0  0  0  0  0  0  0  0
   -6.4010   16.7664  -28.8802 C   0  0  0  0  0  0  0  0  0  0  0  0
   -6.3471   17.4848  -30.0322 O   0  0  0  0  0  0  0  0  0  0  0  0
   -5.4455   17.4130  -31.0538 C   0  0  0  0  0  0  0  0  0  0  0  0
   -4.3639   16.5601  -31.1064 C   0  0  0  0  0  0  0  0  0  0  0  0
   -3.5094   16.5677  -32.1910 C   0  0  0  0  0  0  0  0  0  0  0  0
   -3.6870   17.4198  -33.2724 C   0  0  0  0  0  0  0  0  0  0  0  0
   -2.6190   17.4419  -34.6474 Cl  0  0  0  0  0  0  0  0  0  0  0  0
   -4.7688   18.2701  -33.2155 C   0  0  0  0  0  0  0  0  0  0  0  0
   -5.0146   19.1554  -34.2618 C   0  0  0  0  0  0  0  0  0  0  0  0
   -6.0916   20.0228  -34.2373 C   0  0  0  0  0  0  0  0  0  0  0  0
   -6.9130   19.9803  -33.1408 C   0  0  0  0  0  0  0  0  0  0  0  0
   -6.6498   19.1145  -32.1460 N   0  0  0  0  0  0  0  0  0  0  0  0
   -5.6173   18.2599  -32.1345 C   0  0  0  0  0  0  0  0  0  0  0  0
  1  2  1  0
  2  3  2  0
  3  4  1  0
  4  5  2  0
  5  6  1  0
  5  7  1  0
  7  8  2  0
  8  9  1  0
  9 10  1  0
 10 11  2  0
 11 12  1  0
 12 13  2  0
 13 14  1  0
 13 15  1  0
 15 16  2  0
 16 17  1  0
 17 18  2  0
 18 19  1  0
 19 20  2  0
  8  2  1  0
 20 10  1  0
 20 15  1  0
M  END
>  <shape_align_shape_tanimoto>  (2) 
0.51162964125253418

>  <shape_align_color_tanimoto>  (2) 
0.096305998125970557

>  <metric>  (2) 
color

>  <metric_score>  (2) 
0.096

>  <template_pid>  (2) 
3AZ9

>  <template_shape_score>  (2) 
0.512

>  <template_color_score>  (2) 
0.096

>  <template_combo_score>  (2) 
0.304

$$$$
3AZ9_combo_pose
     RDKit          3D

 20 22  0  0  0  0  0  0  0  0999 V2000
   -5.7222   20.2290  -33.8884 O   0  0  0  0  0  0  0  0  0  0  0  0
   -5.9027   19.3951  -32.7819 C   0  0  0  0  0  0  0  0  0  0  0  0
   -6.9263   19.6919  -31.9357 C   0  0  0  0  0  0  0  0  0  0  0  0
   -7.1465   18.9051  -30.8348 C   0  0  0  0  0  0  0  0  0  0  0  0
   -6.3441   17.8233  -30.5808 C   0  0  0  0  0  0  0  0  0  0  0  0
   -6.6377   16.8226  -29.1652 Cl  0  0  0  0  0  0  0  0  0  0  0  0
   -5.3181   17.5503  -31.4554 C   0  0  0  0  0  0  0  0  0  0  0  0
   -5.0339   18.2913  -32.5799 C   0  0  0  0  0  0  0  0  0  0  0  0
   -4.0863   18.1210  -33.4760 O   0  0  0  0  0  0  0  0  0  0  0  0
   -3.0519   17.3828  -33.8576 C   0  0  0  0  0  0  0  0  0  0  0  0
   -2.5129   16.2660  -33.2657 C   0  0  0  0  0  0  0  0  0  0  0  0
   -1.4243   15.5757  -33.7608 C   0  0  0  0  0  0  0  0  0  0  0  0
   -0.8420   16.0308  -34.9160 C   0  0  0  0  0  0  0  0  0  0  0  0
    0.5361   15.1563  -35.5421 Cl  0  0  0  0  0  0  0  0  0  0  0  0
   -1.3262   17.1401  -35.5624 C   0  0  0  0  0  0  0  0  0  0  0  0
   -0.6980   17.5507  -36.7218 C   0  0  0  0  0  0  0  0  0  0  0  0
   -1.1630   18.6633  -37.3936 C   0  0  0  0  0  0  0  0  0  0  0  0
   -2.2528   19.3081  -36.8480 C   0  0  0  0  0  0  0  0  0  0  0  0
   -2.8444   18.8859  -35.7177 N   0  0  0  0  0  0  0  0  0  0  0  0
   -2.3957   17.7898  -35.0451 C   0  0  0  0  0  0  0  0  0  0  0  0
  1  2  1  0
  2  3  2  0
  3  4  1  0
  4  5  2  0
  5  6  1  0
  5  7  1  0
  7  8  2  0
  8  9  1  0
  9 10  1  0
 10 11  2  0
 11 12  1  0
 12 13  2  0
 13 14  1  0
 13 15  1  0
 15 16  2  0
 16 17  1  0
 17 18  2  0
 18 19  1  0
 19 20  2  0
  8  2  1  0
 20 10  1  0
 20 15  1  0
M  END
>  <shape_align_shape_tanimoto>  (3) 
0.59981249781965673

>  <shape_align_color_tanimoto>  (3) 
0.044720885873272602

>  <metric>  (3) 
combo

>  <metric_score>  (3) 
0.322

>  <template_pid>  (3) 
3AZ9

>  <template_shape_score>  (3) 
0.600

>  <template_color_score>  (3) 
0.045

>  <template_combo_score>  (3) 
0.322

$$$$
