4BGY_shape_pose
     RDKit          3D

 46 48  0  0  0  0  0  0  0  0999 V2000
   27.0706  -68.9810   17.5274 C   0  0  0  0  0  0  0  0  0  0  0  0
   25.9019  -68.3968   18.2682 C   0  0  0  0  0  0  0  0  0  0  0  0
   25.2132  -69.2096   18.9649 O   0  0  0  0  0  0  0  0  0  0  0  0
   25.5843  -67.0115   18.1933 N   0  0  0  0  0  0  0  0  0  0  0  0
   24.4321  -66.4866   18.9348 C   0  0  2  0  0  0  0  0  0  0  0  0
   23.3864  -65.9990   17.9906 C   0  0  1  0  0  0  0  0  0  0  0  0
   22.1719  -66.6705   18.1268 O   0  0  0  0  0  0  0  0  0  0  0  0
   23.1092  -64.5248   18.0841 C   0  0  2  0  0  0  0  0  0  0  0  0
   24.0846  -63.8690   17.3550 O   0  0  0  0  0  0  0  0  0  0  0  0
   23.5680  -63.0928   16.3075 C   0  0  2  0  0  0  0  0  0  0  0  0
   24.0510  -63.6145   15.1152 O   0  0  0  0  0  0  0  0  0  0  0  0
   23.5935  -62.9285   13.9895 C   0  0  2  0  0  0  0  0  0  0  0  0
   24.2650  -63.4339   12.7595 C   0  0  0  0  0  0  0  0  0  0  0  0
   25.6404  -63.2941   12.7751 O   0  0  0  0  0  0  0  0  0  0  0  0
   23.7505  -61.4365   14.2105 C   0  0  2  0  0  0  0  0  0  0  0  0
   24.0008  -60.6970   13.1116 O   0  0  0  0  0  0  0  0  0  0  0  0
   24.8431  -61.2974   15.2529 C   0  0  2  0  0  0  0  0  0  0  0  0
   25.8505  -62.1890   15.1537 O   0  0  0  0  0  0  0  0  0  0  0  0
   27.1601  -61.8850   15.3643 C   0  0  2  0  0  0  0  0  0  0  0  0
   27.6297  -60.8990   14.3586 C   0  0  0  0  0  0  0  0  0  0  0  0
   28.8311  -60.4724   14.3633 O   0  0  0  0  0  0  0  0  0  0  0  0
   26.8471  -60.3624   13.3524 O   0  0  0  0  0  0  0  0  0  0  0  0
   27.9333  -63.1830   15.1341 C   0  0  0  0  0  0  0  0  0  0  0  0
   28.8100  -63.5966   16.2545 C   0  0  2  0  0  0  0  0  0  0  0  0
   28.1300  -64.4030   17.1983 O   0  0  0  0  0  0  0  0  0  0  0  0
   29.5053  -62.4633   16.9500 C   0  0  1  0  0  0  0  0  0  0  0  0
   30.7792  -62.1587   16.3470 N   0  0  0  0  0  0  0  0  0  0  0  0
   31.9685  -62.3197   17.1196 C   0  0  0  0  0  0  0  0  0  0  0  0
   33.2973  -62.0129   16.5251 C   0  0  0  0  0  0  0  0  0  0  0  0
   31.9551  -62.7179   18.3094 O   0  0  0  0  0  0  0  0  0  0  0  0
   28.6177  -61.2469   17.0887 C   0  0  2  0  0  0  0  0  0  0  0  0
   28.5706  -60.8203   18.5390 C   0  0  2  0  0  0  0  0  0  0  0  0
   29.8626  -60.5455   19.0214 O   0  0  0  0  0  0  0  0  0  0  0  0
   27.9103  -61.8818   19.3596 C   0  0  2  0  0  0  0  0  0  0  0  0
   26.6391  -62.2243   18.9252 O   0  0  0  0  0  0  0  0  0  0  0  0
   27.7659  -61.4326   20.8183 C   0  0  0  0  0  0  0  0  0  0  0  0
   27.2476  -62.4596   21.5968 O   0  0  0  0  0  0  0  0  0  0  0  0
   27.3268  -61.4334   16.6689 O   0  0  0  0  0  0  0  0  0  0  0  0
   24.0189  -61.6790   16.5608 C   0  0  1  0  0  0  0  0  0  0  0  0
   22.9514  -60.7590   16.5403 O   0  0  0  0  0  0  0  0  0  0  0  0
   23.1998  -64.0695   19.5238 C   0  0  1  0  0  0  0  0  0  0  0  0
   22.2220  -64.8049   20.4122 C   0  0  0  0  0  0  0  0  0  0  0  0
   20.9193  -64.5680   19.9649 O   0  0  0  0  0  0  0  0  0  0  0  0
   24.5100  -64.2497   19.8966 O   0  0  0  0  0  0  0  0  0  0  0  0
   24.8967  -65.5541   19.9843 C   0  0  1  0  0  0  0  0  0  0  0  0
   24.5513  -66.0029   21.2815 O   0  0  0  0  0  0  0  0  0  0  0  0
  1  2  1  0
  2  3  2  0
  2  4  1  0
  5  4  1  6
  5  6  1  0
  6  7  1  1
  6  8  1  0
  8  9  1  6
 10  9  1  1
 10 11  1  0
 11 12  1  0
 12 13  1  6
 13 14  1  0
 12 15  1  0
 15 16  1  6
 15 17  1  0
 17 18  1  6
 19 18  1  6
 19 20  1  0
 20 21  2  0
 20 22  1  0
 19 23  1  0
 23 24  1  0
 24 25  1  1
 24 26  1  0
 26 27  1  6
 27 28  1  0
 28 29  1  0
 28 30  2  0
 26 31  1  0
 31 32  1  0
 32 33  1  1
 32 34  1  0
 34 35  1  6
 34 36  1  0
 36 37  1  0
 31 38  1  1
 17 39  1  0
 39 40  1  6
  8 41  1  0
 41 42  1  1
 42 43  1  0
 41 44  1  0
 44 45  1  0
 45 46  1  1
 45  5  1  0
 39 10  1  0
 38 19  1  0
M  CHG  1  22  -1
M  END
>  <shape_align_shape_tanimoto>  (1) 
0.50158515524358627

>  <shape_align_color_tanimoto>  (1) 
0.024871017857291407

>  <metric>  (1) 
shape

>  <metric_score>  (1) 
0.502

>  <template_pid>  (1) 
4BGY

>  <template_shape_score>  (1) 
0.502

>  <template_color_score>  (1) 
0.025

>  <template_combo_score>  (1) 
0.263

$$$$
4BGY_color_pose
     RDKit          3D

 46 48  0  0  0  0  0  0  0  0999 V2000
   24.3224  -60.8480   22.3658 C   0  0  0  0  0  0  0  0  0  0  0  0
   23.8110  -62.2480   22.1524 C   0  0  0  0  0  0  0  0  0  0  0  0
   23.2112  -62.8745   23.0541 O   0  0  0  0  0  0  0  0  0  0  0  0
   24.0527  -62.8079   20.8676 N   0  0  0  0  0  0  0  0  0  0  0  0
   23.6298  -64.1431   20.4890 C   0  0  2  0  0  0  0  0  0  0  0  0
   24.8023  -65.0408   20.2019 C   0  0  1  0  0  0  0  0  0  0  0  0
   24.6206  -66.3229   20.7214 O   0  0  0  0  0  0  0  0  0  0  0  0
   25.1727  -65.1437   18.7723 C   0  0  2  0  0  0  0  0  0  0  0  0
   25.9050  -64.0801   18.2635 O   0  0  0  0  0  0  0  0  0  0  0  0
   27.1420  -64.4884   17.7487 C   0  0  2  0  0  0  0  0  0  0  0  0
   28.0678  -64.0105   18.6444 O   0  0  0  0  0  0  0  0  0  0  0  0
   28.5948  -62.7965   18.3495 C   0  0  2  0  0  0  0  0  0  0  0  0
   27.5979  -61.7173   18.6978 C   0  0  0  0  0  0  0  0  0  0  0  0
   28.0999  -60.4351   18.3894 O   0  0  0  0  0  0  0  0  0  0  0  0
   29.1140  -62.7002   16.9309 C   0  0  2  0  0  0  0  0  0  0  0  0
   29.8482  -61.5233   16.7711 O   0  0  0  0  0  0  0  0  0  0  0  0
   28.0067  -62.9226   15.9750 C   0  0  2  0  0  0  0  0  0  0  0  0
   27.0682  -61.9371   16.0298 O   0  0  0  0  0  0  0  0  0  0  0  0
   26.6011  -61.4237   14.8260 C   0  0  2  0  0  0  0  0  0  0  0  0
   27.6327  -60.9037   13.9055 C   0  0  0  0  0  0  0  0  0  0  0  0
   27.2690  -60.3458   12.7973 O   0  0  0  0  0  0  0  0  0  0  0  0
   28.9941  -60.9412   14.0853 O   0  0  0  0  0  0  0  0  0  0  0  0
   25.5706  -60.3767   15.1638 C   0  0  0  0  0  0  0  0  0  0  0  0
   24.2854  -61.0550   15.5599 C   0  0  2  0  0  0  0  0  0  0  0  0
   24.5440  -62.0425   16.5010 O   0  0  0  0  0  0  0  0  0  0  0  0
   23.7339  -61.7414   14.3314 C   0  0  1  0  0  0  0  0  0  0  0  0
   22.8127  -60.7710   13.7264 N   0  0  0  0  0  0  0  0  0  0  0  0
   21.4410  -61.0603   13.5297 C   0  0  0  0  0  0  0  0  0  0  0  0
   20.5991  -60.0079   12.9096 C   0  0  0  0  0  0  0  0  0  0  0  0
   21.0210  -62.1793   13.8879 O   0  0  0  0  0  0  0  0  0  0  0  0
   24.8997  -61.9918   13.3968 C   0  0  2  0  0  0  0  0  0  0  0  0
   24.4911  -62.8912   12.2453 C   0  0  2  0  0  0  0  0  0  0  0  0
   23.3860  -62.3028   11.6335 O   0  0  0  0  0  0  0  0  0  0  0  0
   24.1887  -64.2847   12.6705 C   0  0  2  0  0  0  0  0  0  0  0  0
   25.2620  -64.9198   13.2880 O   0  0  0  0  0  0  0  0  0  0  0  0
   23.7515  -65.1247   11.4882 C   0  0  0  0  0  0  0  0  0  0  0  0
   23.3610  -66.3877   11.8897 O   0  0  0  0  0  0  0  0  0  0  0  0
   25.9784  -62.4638   14.0821 O   0  0  0  0  0  0  0  0  0  0  0  0
   27.3325  -64.2423   16.3120 C   0  0  1  0  0  0  0  0  0  0  0  0
   28.1870  -65.2226   15.7192 O   0  0  0  0  0  0  0  0  0  0  0  0
   23.9600  -65.2981   17.9066 C   0  0  1  0  0  0  0  0  0  0  0  0
   23.3078  -66.6468   18.0249 C   0  0  0  0  0  0  0  0  0  0  0  0
   22.2855  -66.7041   17.0862 O   0  0  0  0  0  0  0  0  0  0  0  0
   23.1201  -64.2442   18.1328 O   0  0  0  0  0  0  0  0  0  0  0  0
   22.6030  -64.1283   19.3930 C   0  0  1  0  0  0  0  0  0  0  0  0
   21.6219  -65.1079   19.5591 O   0  0  0  0  0  0  0  0  0  0  0  0
  1  2  1  0
  2  3  2  0
  2  4  1  0
  5  4  1  6
  5  6  1  0
  6  7  1  6
  6  8  1  0
  8  9  1  6
 10  9  1  1
 10 11  1  0
 11 12  1  0
 12 13  1  6
 13 14  1  0
 12 15  1  0
 15 16  1  6
 15 17  1  0
 17 18  1  1
 19 18  1  1
 19 20  1  0
 20 21  2  0
 20 22  1  0
 19 23  1  0
 23 24  1  0
 24 25  1  1
 24 26  1  0
 26 27  1  6
 27 28  1  0
 28 29  1  0
 28 30  2  0
 26 31  1  0
 31 32  1  0
 32 33  1  1
 32 34  1  0
 34 35  1  6
 34 36  1  0
 36 37  1  0
 31 38  1  1
 17 39  1  0
 39 40  1  1
  8 41  1  0
 41 42  1  1
 42 43  1  0
 41 44  1  0
 44 45  1  0
 45 46  1  1
 45  5  1  0
 39 10  1  0
 38 19  1  0
M  CHG  1  22  -1
M  END
>  <shape_align_shape_tanimoto>  (2) 
0.47587520287105239

>  <shape_align_color_tanimoto>  (2) 
0.087823402083418767

>  <metric>  (2) 
color

>  <metric_score>  (2) 
0.088

>  <template_pid>  (2) 
4BGY

>  <template_shape_score>  (2) 
0.476

>  <template_color_score>  (2) 
0.088

>  <template_combo_score>  (2) 
0.282

$$$$
4BGY_combo_pose
     RDKit          3D

 46 48  0  0  0  0  0  0  0  0999 V2000
   24.3224  -60.8480   22.3658 C   0  0  0  0  0  0  0  0  0  0  0  0
   23.8110  -62.2480   22.1524 C   0  0  0  0  0  0  0  0  0  0  0  0
   23.2112  -62.8745   23.0541 O   0  0  0  0  0  0  0  0  0  0  0  0
   24.0527  -62.8079   20.8676 N   0  0  0  0  0  0  0  0  0  0  0  0
   23.6298  -64.1431   20.4890 C   0  0  2  0  0  0  0  0  0  0  0  0
   24.8023  -65.0408   20.2019 C   0  0  1  0  0  0  0  0  0  0  0  0
   24.6206  -66.3229   20.7214 O   0  0  0  0  0  0  0  0  0  0  0  0
   25.1727  -65.1437   18.7723 C   0  0  2  0  0  0  0  0  0  0  0  0
   25.9050  -64.0801   18.2635 O   0  0  0  0  0  0  0  0  0  0  0  0
   27.1420  -64.4884   17.7487 C   0  0  2  0  0  0  0  0  0  0  0  0
   28.0678  -64.0105   18.6444 O   0  0  0  0  0  0  0  0  0  0  0  0
   28.5948  -62.7965   18.3495 C   0  0  2  0  0  0  0  0  0  0  0  0
   27.5979  -61.7173   18.6978 C   0  0  0  0  0  0  0  0  0  0  0  0
   28.0999  -60.4351   18.3894 O   0  0  0  0  0  0  0  0  0  0  0  0
   29.1140  -62.7002   16.9309 C   0  0  2  0  0  0  0  0  0  0  0  0
   29.8482  -61.5233   16.7711 O   0  0  0  0  0  0  0  0  0  0  0  0
   28.0067  -62.9226   15.9750 C   0  0  2  0  0  0  0  0  0  0  0  0
   27.0682  -61.9371   16.0298 O   0  0  0  0  0  0  0  0  0  0  0  0
   26.6011  -61.4237   14.8260 C   0  0  2  0  0  0  0  0  0  0  0  0
   27.6327  -60.9037   13.9055 C   0  0  0  0  0  0  0  0  0  0  0  0
   27.2690  -60.3458   12.7973 O   0  0  0  0  0  0  0  0  0  0  0  0
   28.9941  -60.9412   14.0853 O   0  0  0  0  0  0  0  0  0  0  0  0
   25.5706  -60.3767   15.1638 C   0  0  0  0  0  0  0  0  0  0  0  0
   24.2854  -61.0550   15.5599 C   0  0  2  0  0  0  0  0  0  0  0  0
   24.5440  -62.0425   16.5010 O   0  0  0  0  0  0  0  0  0  0  0  0
   23.7339  -61.7414   14.3314 C   0  0  1  0  0  0  0  0  0  0  0  0
   22.8127  -60.7710   13.7264 N   0  0  0  0  0  0  0  0  0  0  0  0
   21.4410  -61.0603   13.5297 C   0  0  0  0  0  0  0  0  0  0  0  0
   20.5991  -60.0079   12.9096 C   0  0  0  0  0  0  0  0  0  0  0  0
   21.0210  -62.1793   13.8879 O   0  0  0  0  0  0  0  0  0  0  0  0
   24.8997  -61.9918   13.3968 C   0  0  2  0  0  0  0  0  0  0  0  0
   24.4911  -62.8912   12.2453 C   0  0  2  0  0  0  0  0  0  0  0  0
   23.3860  -62.3028   11.6335 O   0  0  0  0  0  0  0  0  0  0  0  0
   24.1887  -64.2847   12.6705 C   0  0  2  0  0  0  0  0  0  0  0  0
   25.2620  -64.9198   13.2880 O   0  0  0  0  0  0  0  0  0  0  0  0
   23.7515  -65.1247   11.4882 C   0  0  0  0  0  0  0  0  0  0  0  0
   23.3610  -66.3877   11.8897 O   0  0  0  0  0  0  0  0  0  0  0  0
   25.9784  -62.4638   14.0821 O   0  0  0  0  0  0  0  0  0  0  0  0
   27.3325  -64.2423   16.3120 C   0  0  1  0  0  0  0  0  0  0  0  0
   28.1870  -65.2226   15.7192 O   0  0  0  0  0  0  0  0  0  0  0  0
   23.9600  -65.2981   17.9066 C   0  0  1  0  0  0  0  0  0  0  0  0
   23.3078  -66.6468   18.0249 C   0  0  0  0  0  0  0  0  0  0  0  0
   22.2855  -66.7041   17.0862 O   0  0  0  0  0  0  0  0  0  0  0  0
   23.1201  -64.2442   18.1328 O   0  0  0  0  0  0  0  0  0  0  0  0
   22.6030  -64.1283   19.3930 C   0  0  1  0  0  0  0  0  0  0  0  0
   21.6219  -65.1079   19.5591 O   0  0  0  0  0  0  0  0  0  0  0  0
  1  2  1  0
  2  3  2  0
  2  4  1  0
  5  4  1  6
  5  6  1  0
  6  7  1  6
  6  8  1  0
  8  9  1  6
 10  9  1  1
 10 11  1  0
 11 12  1  0
 12 13  1  6
 13 14  1  0
 12 15  1  0
 15 16  1  6
 15 17  1  0
 17 18  1  1
 19 18  1  1
 19 20  1  0
 20 21  2  0
 20 22  1  0
 19 23  1  0
 23 24  1  0
 24 25  1  1
 24 26  1  0
 26 27  1  6
 27 28  1  0
 28 29  1  0
 28 30  2  0
 26 31  1  0
 31 32  1  0
 32 33  1  1
 32 34  1  0
 34 35  1  6
 34 36  1  0
 36 37  1  0
 31 38  1  1
 17 39  1  0
 39 40  1  1
  8 41  1  0
 41 42  1  1
 42 43  1  0
 41 44  1  0
 44 45  1  0
 45 46  1  1
 45  5  1  0
 39 10  1  0
 38 19  1  0
M  CHG  1  22  -1
M  END
>  <shape_align_shape_tanimoto>  (3) 
0.47587520287105239

>  <shape_align_color_tanimoto>  (3) 
0.087823402083418767

>  <metric>  (3) 
combo

>  <metric_score>  (3) 
0.282

>  <template_pid>  (3) 
4BGY

>  <template_shape_score>  (3) 
0.476

>  <template_color_score>  (3) 
0.088

>  <template_combo_score>  (3) 
0.282

$$$$
