4E3N_shape_pose
     RDKit          3D

 23 24  0  0  0  0  0  0  0  0999 V2000
   30.8536   66.1045    1.7364 O   0  0  0  0  0  0  0  0  0  0  0  0
   32.1688   66.5358    2.2317 S   0  0  0  0  0  0  0  0  0  0  0  0
   32.3336   67.6990    2.9508 O   0  0  0  0  0  0  0  0  0  0  0  0
   33.5245   66.2266    1.0777 N   0  0  0  0  0  0  0  0  0  0  0  0
   32.9502   65.2151    0.2326 C   0  0  0  0  0  0  0  0  0  0  0  0
   33.6542   63.8099    0.4392 B   0  0  0  0  0  0  0  0  0  0  0  0
   34.8173   63.4829    1.0594 O   0  0  0  0  0  0  0  0  0  0  0  0
   32.4239   62.8497    0.8548 O   0  0  0  0  0  0  0  0  0  0  0  0
   32.5440   65.1482    3.5675 C   0  0  0  0  0  0  0  0  0  0  0  0
   33.8015   64.7778    3.6569 C   0  0  0  0  0  0  0  0  0  0  0  0
   34.1458   63.6574    4.4671 C   0  0  0  0  0  0  0  0  0  0  0  0
   33.1438   63.0631    5.1057 C   0  0  0  0  0  0  0  0  0  0  0  0
   33.2744   61.9521    6.0976 C   0  0  0  0  0  0  0  0  0  0  0  0
   32.8692   60.7090    6.0808 N   0  0  0  0  0  0  0  0  0  0  0  0
   32.9897   60.2186    7.3408 N   0  0  0  0  0  0  0  0  0  0  0  0
   33.5181   61.1998    8.0640 N   0  0  0  0  0  0  0  0  0  0  0  0
   33.7198   62.2223    7.2988 N   0  0  0  0  0  0  0  0  0  0  0  0
   31.7761   63.5039    5.0074 C   0  0  0  0  0  0  0  0  0  0  0  0
   31.5607   64.6146    4.1399 C   0  0  0  0  0  0  0  0  0  0  0  0
   30.1998   65.2127    4.1574 C   0  0  0  0  0  0  0  0  0  0  0  0
   30.3111   66.6079    4.2731 F   0  0  0  0  0  0  0  0  0  0  0  0
   29.2979   64.7654    3.3524 F   0  0  0  0  0  0  0  0  0  0  0  0
   29.7246   64.9460    5.5129 F   0  0  0  0  0  0  0  0  0  0  0  0
  1  2  2  0
  2  3  2  0
  2  4  1  0
  4  5  1  0
  5  6  1  0
  6  7  1  0
  6  8  1  0
  2  9  1  0
  9 10  2  0
 10 11  1  0
 11 12  2  0
 12 13  1  0
 13 14  1  0
 14 15  2  0
 15 16  1  0
 16 17  1  0
 12 18  1  0
 18 19  2  0
 19 20  1  0
 20 21  1  0
 20 22  1  0
 20 23  1  0
 19  9  1  0
 17 13  2  0
M  END
>  <shape_align_shape_tanimoto>  (1) 
0.58992407151369375

>  <shape_align_color_tanimoto>  (1) 
0.097261120078208307

>  <metric>  (1) 
shape

>  <metric_score>  (1) 
0.590

>  <template_pid>  (1) 
4E3N

>  <template_shape_score>  (1) 
0.590

>  <template_color_score>  (1) 
0.097

>  <template_combo_score>  (1) 
0.344

$$$$
4E3N_color_pose
     RDKit          3D

 23 24  0  0  0  0  0  0  0  0999 V2000
   30.8536   66.1045    1.7364 O   0  0  0  0  0  0  0  0  0  0  0  0
   32.1688   66.5358    2.2317 S   0  0  0  0  0  0  0  0  0  0  0  0
   32.3336   67.6990    2.9508 O   0  0  0  0  0  0  0  0  0  0  0  0
   33.5245   66.2266    1.0777 N   0  0  0  0  0  0  0  0  0  0  0  0
   32.9502   65.2151    0.2326 C   0  0  0  0  0  0  0  0  0  0  0  0
   33.6542   63.8099    0.4392 B   0  0  0  0  0  0  0  0  0  0  0  0
   34.8173   63.4829    1.0594 O   0  0  0  0  0  0  0  0  0  0  0  0
   32.4239   62.8497    0.8548 O   0  0  0  0  0  0  0  0  0  0  0  0
   32.5440   65.1482    3.5675 C   0  0  0  0  0  0  0  0  0  0  0  0
   33.8015   64.7778    3.6569 C   0  0  0  0  0  0  0  0  0  0  0  0
   34.1458   63.6574    4.4671 C   0  0  0  0  0  0  0  0  0  0  0  0
   33.1438   63.0631    5.1057 C   0  0  0  0  0  0  0  0  0  0  0  0
   33.2744   61.9521    6.0976 C   0  0  0  0  0  0  0  0  0  0  0  0
   32.8692   60.7090    6.0808 N   0  0  0  0  0  0  0  0  0  0  0  0
   32.9897   60.2186    7.3408 N   0  0  0  0  0  0  0  0  0  0  0  0
   33.5181   61.1998    8.0640 N   0  0  0  0  0  0  0  0  0  0  0  0
   33.7198   62.2223    7.2988 N   0  0  0  0  0  0  0  0  0  0  0  0
   31.7761   63.5039    5.0074 C   0  0  0  0  0  0  0  0  0  0  0  0
   31.5607   64.6146    4.1399 C   0  0  0  0  0  0  0  0  0  0  0  0
   30.1998   65.2127    4.1574 C   0  0  0  0  0  0  0  0  0  0  0  0
   30.3111   66.6079    4.2731 F   0  0  0  0  0  0  0  0  0  0  0  0
   29.2979   64.7654    3.3524 F   0  0  0  0  0  0  0  0  0  0  0  0
   29.7246   64.9460    5.5129 F   0  0  0  0  0  0  0  0  0  0  0  0
  1  2  2  0
  2  3  2  0
  2  4  1  0
  4  5  1  0
  5  6  1  0
  6  7  1  0
  6  8  1  0
  2  9  1  0
  9 10  2  0
 10 11  1  0
 11 12  2  0
 12 13  1  0
 13 14  1  0
 14 15  2  0
 15 16  1  0
 16 17  1  0
 12 18  1  0
 18 19  2  0
 19 20  1  0
 20 21  1  0
 20 22  1  0
 20 23  1  0
 19  9  1  0
 17 13  2  0
M  END
>  <shape_align_shape_tanimoto>  (2) 
0.58992407151369375

>  <shape_align_color_tanimoto>  (2) 
0.097261120078208307

>  <metric>  (2) 
color

>  <metric_score>  (2) 
0.097

>  <template_pid>  (2) 
4E3N

>  <template_shape_score>  (2) 
0.590

>  <template_color_score>  (2) 
0.097

>  <template_combo_score>  (2) 
0.344

$$$$
4E3N_combo_pose
     RDKit          3D

 23 24  0  0  0  0  0  0  0  0999 V2000
   30.8536   66.1045    1.7364 O   0  0  0  0  0  0  0  0  0  0  0  0
   32.1688   66.5358    2.2317 S   0  0  0  0  0  0  0  0  0  0  0  0
   32.3336   67.6990    2.9508 O   0  0  0  0  0  0  0  0  0  0  0  0
   33.5245   66.2266    1.0777 N   0  0  0  0  0  0  0  0  0  0  0  0
   32.9502   65.2151    0.2326 C   0  0  0  0  0  0  0  0  0  0  0  0
   33.6542   63.8099    0.4392 B   0  0  0  0  0  0  0  0  0  0  0  0
   34.8173   63.4829    1.0594 O   0  0  0  0  0  0  0  0  0  0  0  0
   32.4239   62.8497    0.8548 O   0  0  0  0  0  0  0  0  0  0  0  0
   32.5440   65.1482    3.5675 C   0  0  0  0  0  0  0  0  0  0  0  0
   33.8015   64.7778    3.6569 C   0  0  0  0  0  0  0  0  0  0  0  0
   34.1458   63.6574    4.4671 C   0  0  0  0  0  0  0  0  0  0  0  0
   33.1438   63.0631    5.1057 C   0  0  0  0  0  0  0  0  0  0  0  0
   33.2744   61.9521    6.0976 C   0  0  0  0  0  0  0  0  0  0  0  0
   32.8692   60.7090    6.0808 N   0  0  0  0  0  0  0  0  0  0  0  0
   32.9897   60.2186    7.3408 N   0  0  0  0  0  0  0  0  0  0  0  0
   33.5181   61.1998    8.0640 N   0  0  0  0  0  0  0  0  0  0  0  0
   33.7198   62.2223    7.2988 N   0  0  0  0  0  0  0  0  0  0  0  0
   31.7761   63.5039    5.0074 C   0  0  0  0  0  0  0  0  0  0  0  0
   31.5607   64.6146    4.1399 C   0  0  0  0  0  0  0  0  0  0  0  0
   30.1998   65.2127    4.1574 C   0  0  0  0  0  0  0  0  0  0  0  0
   30.3111   66.6079    4.2731 F   0  0  0  0  0  0  0  0  0  0  0  0
   29.2979   64.7654    3.3524 F   0  0  0  0  0  0  0  0  0  0  0  0
   29.7246   64.9460    5.5129 F   0  0  0  0  0  0  0  0  0  0  0  0
  1  2  2  0
  2  3  2  0
  2  4  1  0
  4  5  1  0
  5  6  1  0
  6  7  1  0
  6  8  1  0
  2  9  1  0
  9 10  2  0
 10 11  1  0
 11 12  2  0
 12 13  1  0
 13 14  1  0
 14 15  2  0
 15 16  1  0
 16 17  1  0
 12 18  1  0
 18 19  2  0
 19 20  1  0
 20 21  1  0
 20 22  1  0
 20 23  1  0
 19  9  1  0
 17 13  2  0
M  END
>  <shape_align_shape_tanimoto>  (3) 
0.58992407151369375

>  <shape_align_color_tanimoto>  (3) 
0.097261120078208307

>  <metric>  (3) 
combo

>  <metric_score>  (3) 
0.344

>  <template_pid>  (3) 
4E3N

>  <template_shape_score>  (3) 
0.590

>  <template_color_score>  (3) 
0.097

>  <template_combo_score>  (3) 
0.344

$$$$
