4I9H_shape_pose
     RDKit          3D

 51 54  0  0  0  0  0  0  0  0999 V2000
   40.0824   32.4260   18.5145 C   0  0  0  0  0  0  0  0  0  0  0  0
   40.4014   31.1128   18.8207 O   0  0  0  0  0  0  0  0  0  0  0  0
   40.9660   30.2506   17.9157 C   0  0  0  0  0  0  0  0  0  0  0  0
   41.2834   30.5755   16.6147 C   0  0  0  0  0  0  0  0  0  0  0  0
   41.8493   29.6386   15.7764 C   0  0  0  0  0  0  0  0  0  0  0  0
   42.1947   29.8821   14.4625 O   0  0  0  0  0  0  0  0  0  0  0  0
   42.0151   31.1203   13.7920 C   0  0  0  0  0  0  0  0  0  0  0  0
   42.4261   31.0440   12.3661 C   0  0  1  0  0  0  0  0  0  0  0  0
   42.1840   32.1815   11.6097 O   0  0  0  0  0  0  0  0  0  0  0  0
   43.8358   30.5862   12.0911 C   0  0  1  0  0  0  0  0  0  0  0  0
   43.8125   30.1503   10.7318 O   0  0  0  0  0  0  0  0  0  0  0  0
   44.7809   31.8186   12.1081 C   0  0  2  0  0  0  0  0  0  0  0  0
   44.1133   32.7281   11.2087 O   0  0  0  0  0  0  0  0  0  0  0  0
   46.0537   31.5003   11.3800 C   0  0  2  0  0  0  0  0  0  0  0  0
   45.6957   30.7702   10.2235 O   0  0  0  0  0  0  0  0  0  0  0  0
   47.2117   30.9443   12.0766 C   0  0  0  0  0  0  0  0  0  0  0  0
   47.2369   29.7870   12.7625 O   0  0  0  0  0  0  0  0  0  0  0  0
   46.7700   29.3051   13.9291 C   0  0  0  0  0  0  0  0  0  0  0  0
   47.0177   27.9475   14.2061 C   0  0  0  0  0  0  0  0  0  0  0  0
   46.5928   27.3725   15.3821 C   0  0  0  0  0  0  0  0  0  0  0  0
   46.8252   26.0495   15.6687 F   0  0  0  0  0  0  0  0  0  0  0  0
   45.9122   28.0915   16.3367 C   0  0  0  0  0  0  0  0  0  0  0  0
   45.6559   29.4211   16.0926 C   0  0  0  0  0  0  0  0  0  0  0  0
   44.9934   30.2962   17.0700 C   0  0  0  0  0  0  0  0  0  0  0  0
   44.6182   29.8619   18.3251 C   0  0  0  0  0  0  0  0  0  0  0  0
   44.0401   30.7794   19.1816 C   0  0  0  0  0  0  0  0  0  0  0  0
   43.8208   32.0987   18.8462 C   0  0  0  0  0  0  0  0  0  0  0  0
   43.2058   33.0248   19.8003 C   0  0  0  0  0  0  0  0  0  0  0  0
   42.8469   32.6713   20.9555 O   0  0  0  0  0  0  0  0  0  0  0  0
   43.0263   34.3550   19.3682 O   0  0  0  0  0  0  0  0  0  0  0  0
   44.2119   32.4887   17.5782 C   0  0  0  0  0  0  0  0  0  0  0  0
   44.7624   31.5869   16.7822 N   0  0  0  0  0  0  0  0  0  0  0  0
   46.0879   29.9843   14.9028 C   0  0  0  0  0  0  0  0  0  0  0  0
   42.1047   28.3505   16.2450 C   0  0  0  0  0  0  0  0  0  0  0  0
   42.8108   27.1381   15.1608 Cl  0  0  0  0  0  0  0  0  0  0  0  0
   41.8020   27.9991   17.5286 C   0  0  0  0  0  0  0  0  0  0  0  0
   41.2333   28.9655   18.3452 C   0  0  0  0  0  0  0  0  0  0  0  0
   40.9396   28.5312   19.6864 N   0  0  0  0  0  0  0  0  0  0  0  0
   39.7006   27.9262   20.0200 C   0  0  0  0  0  0  0  0  0  0  0  0
   38.8181   27.7432   19.1705 O   0  0  0  0  0  0  0  0  0  0  0  0
   39.4926   27.5172   21.4182 C   0  0  0  0  0  0  0  0  0  0  0  0
   40.1051   25.8234   21.7110 S   0  0  0  0  0  0  0  0  0  0  0  0
   39.1759   24.6007   20.8164 C   0  0  0  0  0  0  0  0  0  0  0  0
   39.5603   24.2150   19.5311 C   0  0  0  0  0  0  0  0  0  0  0  0
   38.8338   23.2512   18.8278 C   0  0  0  0  0  0  0  0  0  0  0  0
   37.7341   22.7094   19.4603 C   0  0  0  0  0  0  0  0  0  0  0  0
   36.9536   21.6941   18.7486 C   0  0  0  0  0  0  0  0  0  0  0  0
   37.2680   21.3289   17.6067 O   0  0  0  0  0  0  0  0  0  0  0  0
   35.8441   21.1375   19.3728 O   0  0  0  0  0  0  0  0  0  0  0  0
   37.3578   23.1038   20.7476 C   0  0  0  0  0  0  0  0  0  0  0  0
   38.0831   24.0391   21.3994 N   0  0  0  0  0  0  0  0  0  0  0  0
  1  2  1  0
  2  3  1  0
  3  4  2  0
  4  5  1  0
  5  6  1  0
  6  7  1  0
  7  8  1  0
  8  9  1  1
  8 10  1  0
 10 11  1  6
 10 12  1  0
 12 13  1  6
 12 14  1  0
 14 15  1  6
 14 16  1  0
 16 17  1  0
 17 18  1  0
 18 19  2  0
 19 20  1  0
 20 21  1  0
 20 22  2  0
 22 23  1  0
 23 24  1  0
 24 25  2  0
 25 26  1  0
 26 27  2  0
 27 28  1  0
 28 29  2  0
 28 30  1  0
 27 31  1  0
 31 32  2  0
 23 33  2  0
  5 34  2  0
 34 35  1  0
 34 36  1  0
 36 37  2  0
 37 38  1  0
 38 39  1  0
 39 40  2  0
 39 41  1  0
 41 42  1  0
 42 43  1  0
 43 44  2  0
 44 45  1  0
 45 46  2  0
 46 47  1  0
 47 48  2  0
 47 49  1  0
 46 50  1  0
 50 51  2  0
 37  3  1  0
 51 43  1  0
 33 18  1  0
 32 24  1  0
M  CHG  2  30  -1  49  -1
M  END
>  <shape_align_shape_tanimoto>  (1) 
0.28899936174292223

>  <shape_align_color_tanimoto>  (1) 
0.029710090341178257

>  <metric>  (1) 
shape

>  <metric_score>  (1) 
0.289

>  <template_pid>  (1) 
4I9H

>  <template_shape_score>  (1) 
0.289

>  <template_color_score>  (1) 
0.030

>  <template_combo_score>  (1) 
0.159

$$$$
4I9H_color_pose
     RDKit          3D

 51 54  0  0  0  0  0  0  0  0999 V2000
   44.6752   25.8686   17.8800 C   0  0  0  0  0  0  0  0  0  0  0  0
   45.8852   26.3868   17.3263 O   0  0  0  0  0  0  0  0  0  0  0  0
   45.8216   27.5235   16.5214 C   0  0  0  0  0  0  0  0  0  0  0  0
   44.5886   28.1385   16.2682 C   0  0  0  0  0  0  0  0  0  0  0  0
   44.4705   29.2597   15.4836 C   0  0  0  0  0  0  0  0  0  0  0  0
   43.3158   29.9216   15.1826 O   0  0  0  0  0  0  0  0  0  0  0  0
   42.0106   29.7092   15.5634 C   0  0  0  0  0  0  0  0  0  0  0  0
   41.7373   29.8685   17.0595 C   0  0  1  0  0  0  0  0  0  0  0  0
   41.9994   31.1485   17.4756 O   0  0  0  0  0  0  0  0  0  0  0  0
   40.2427   29.5930   17.2408 C   0  0  1  0  0  0  0  0  0  0  0  0
   39.9750   28.2747   16.8189 O   0  0  0  0  0  0  0  0  0  0  0  0
   39.7697   29.8632   18.6183 C   0  0  2  0  0  0  0  0  0  0  0  0
   39.9812   31.2547   18.8556 O   0  0  0  0  0  0  0  0  0  0  0  0
   40.4101   29.1028   19.7447 C   0  0  2  0  0  0  0  0  0  0  0  0
   41.7816   29.4147   19.8133 O   0  0  0  0  0  0  0  0  0  0  0  0
   40.2387   27.6134   19.6356 C   0  0  0  0  0  0  0  0  0  0  0  0
   40.7457   26.8808   20.6637 O   0  0  0  0  0  0  0  0  0  0  0  0
   40.4092   26.8288   21.9630 C   0  0  0  0  0  0  0  0  0  0  0  0
   39.4013   27.5081   22.6070 C   0  0  0  0  0  0  0  0  0  0  0  0
   39.1574   27.3650   23.9775 C   0  0  0  0  0  0  0  0  0  0  0  0
   38.1600   28.0457   24.5892 F   0  0  0  0  0  0  0  0  0  0  0  0
   39.9354   26.5220   24.7356 C   0  0  0  0  0  0  0  0  0  0  0  0
   40.9525   25.8283   24.1203 C   0  0  0  0  0  0  0  0  0  0  0  0
   41.8332   24.9155   24.8528 C   0  0  0  0  0  0  0  0  0  0  0  0
   41.7092   24.6900   26.2190 C   0  0  0  0  0  0  0  0  0  0  0  0
   42.5861   23.8170   26.8404 C   0  0  0  0  0  0  0  0  0  0  0  0
   43.5862   23.1585   26.1455 C   0  0  0  0  0  0  0  0  0  0  0  0
   44.5063   22.2476   26.7903 C   0  0  0  0  0  0  0  0  0  0  0  0
   45.3973   21.6736   26.1302 O   0  0  0  0  0  0  0  0  0  0  0  0
   44.3709   22.0330   28.1483 O   0  0  0  0  0  0  0  0  0  0  0  0
   43.6795   23.4044   24.8037 C   0  0  0  0  0  0  0  0  0  0  0  0
   42.8210   24.2494   24.2319 N   0  0  0  0  0  0  0  0  0  0  0  0
   41.1735   25.9830   22.7792 C   0  0  0  0  0  0  0  0  0  0  0  0
   45.6534   29.7625   14.9424 C   0  0  0  0  0  0  0  0  0  0  0  0
   45.6310   31.1939   13.9184 Cl  0  0  0  0  0  0  0  0  0  0  0  0
   46.8806   29.1789   15.1738 C   0  0  0  0  0  0  0  0  0  0  0  0
   46.9712   28.0606   15.9623 C   0  0  0  0  0  0  0  0  0  0  0  0
   48.1891   27.3897   16.2647 N   0  0  0  0  0  0  0  0  0  0  0  0
   48.9596   27.7189   17.4214 C   0  0  0  0  0  0  0  0  0  0  0  0
   48.6177   28.6138   18.2373 O   0  0  0  0  0  0  0  0  0  0  0  0
   50.2244   26.9688   17.6734 C   0  0  0  0  0  0  0  0  0  0  0  0
   50.5473   25.7207   16.4132 S   0  0  0  0  0  0  0  0  0  0  0  0
   49.3537   24.3954   16.4289 C   0  0  0  0  0  0  0  0  0  0  0  0
   49.5059   23.3858   15.4932 C   0  0  0  0  0  0  0  0  0  0  0  0
   48.6001   22.3219   15.4691 C   0  0  0  0  0  0  0  0  0  0  0  0
   47.5648   22.2935   16.3800 C   0  0  0  0  0  0  0  0  0  0  0  0
   46.6182   21.1860   16.3598 C   0  0  0  0  0  0  0  0  0  0  0  0
   46.7089   20.2269   15.5246 O   0  0  0  0  0  0  0  0  0  0  0  0
   45.5649   21.1432   17.2721 O   0  0  0  0  0  0  0  0  0  0  0  0
   47.4639   23.3274   17.2885 C   0  0  0  0  0  0  0  0  0  0  0  0
   48.3280   24.3618   17.3269 N   0  0  0  0  0  0  0  0  0  0  0  0
  1  2  1  0
  2  3  1  0
  3  4  2  0
  4  5  1  0
  5  6  1  0
  6  7  1  0
  7  8  1  0
  8  9  1  6
  8 10  1  0
 10 11  1  1
 10 12  1  0
 12 13  1  1
 12 14  1  0
 14 15  1  6
 14 16  1  0
 16 17  1  0
 17 18  1  0
 18 19  2  0
 19 20  1  0
 20 21  1  0
 20 22  2  0
 22 23  1  0
 23 24  1  0
 24 25  2  0
 25 26  1  0
 26 27  2  0
 27 28  1  0
 28 29  2  0
 28 30  1  0
 27 31  1  0
 31 32  2  0
 23 33  2  0
  5 34  2  0
 34 35  1  0
 34 36  1  0
 36 37  2  0
 37 38  1  0
 38 39  1  0
 39 40  2  0
 39 41  1  0
 41 42  1  0
 42 43  1  0
 43 44  2  0
 44 45  1  0
 45 46  2  0
 46 47  1  0
 47 48  2  0
 47 49  1  0
 46 50  1  0
 50 51  2  0
 37  3  1  0
 51 43  1  0
 33 18  1  0
 32 24  1  0
M  CHG  2  30  -1  49  -1
M  END
>  <shape_align_shape_tanimoto>  (2) 
0.25958707002872056

>  <shape_align_color_tanimoto>  (2) 
0.091643400088583737

>  <metric>  (2) 
color

>  <metric_score>  (2) 
0.092

>  <template_pid>  (2) 
4I9H

>  <template_shape_score>  (2) 
0.260

>  <template_color_score>  (2) 
0.092

>  <template_combo_score>  (2) 
0.176

$$$$
4I9H_combo_pose
     RDKit          3D

 51 54  0  0  0  0  0  0  0  0999 V2000
   36.8415   28.8089   24.9156 C   0  0  0  0  0  0  0  0  0  0  0  0
   37.5802   28.4997   23.8706 O   0  0  0  0  0  0  0  0  0  0  0  0
   38.2911   28.2158   22.8767 C   0  0  0  0  0  0  0  0  0  0  0  0
   39.3333   28.4173   22.0517 C   0  0  0  0  0  0  0  0  0  0  0  0
   39.7166   27.6179   21.0829 C   0  0  0  0  0  0  0  0  0  0  0  0
   40.7004   27.8192   20.1427 O   0  0  0  0  0  0  0  0  0  0  0  0
   41.3421   28.9667   19.8402 C   0  0  0  0  0  0  0  0  0  0  0  0
   41.2836   30.3857   19.3925 C   0  0  1  0  0  0  0  0  0  0  0  0
   42.5866   30.8365   19.1737 O   0  0  0  0  0  0  0  0  0  0  0  0
   40.4851   30.4974   18.0801 C   0  0  1  0  0  0  0  0  0  0  0  0
   40.6940   31.7949   17.6527 O   0  0  0  0  0  0  0  0  0  0  0  0
   40.4232   29.5162   17.0666 C   0  0  2  0  0  0  0  0  0  0  0  0
   40.0964   28.1519   17.4417 O   0  0  0  0  0  0  0  0  0  0  0  0
   41.5369   29.2087   16.0984 C   0  0  2  0  0  0  0  0  0  0  0  0
   42.5496   28.5028   16.6337 O   0  0  0  0  0  0  0  0  0  0  0  0
   42.0165   30.2588   15.1341 C   0  0  0  0  0  0  0  0  0  0  0  0
   42.9370   29.3982   14.3398 O   0  0  0  0  0  0  0  0  0  0  0  0
   44.1012   28.9863   14.9451 C   0  0  0  0  0  0  0  0  0  0  0  0
   44.8634   28.0234   14.2062 C   0  0  0  0  0  0  0  0  0  0  0  0
   46.0526   27.5828   14.7994 C   0  0  0  0  0  0  0  0  0  0  0  0
   46.7407   26.6151   14.1913 F   0  0  0  0  0  0  0  0  0  0  0  0
   46.5252   28.0342   16.0052 C   0  0  0  0  0  0  0  0  0  0  0  0
   45.7821   28.9538   16.6938 C   0  0  0  0  0  0  0  0  0  0  0  0
   46.1863   29.2838   18.0905 C   0  0  0  0  0  0  0  0  0  0  0  0
   47.2670   28.7360   18.6768 C   0  0  0  0  0  0  0  0  0  0  0  0
   47.5860   29.0055   20.0190 C   0  0  0  0  0  0  0  0  0  0  0  0
   46.6762   29.8793   20.6809 C   0  0  0  0  0  0  0  0  0  0  0  0
   46.9090   30.0327   22.1018 C   0  0  0  0  0  0  0  0  0  0  0  0
   45.9723   30.6755   22.7883 O   0  0  0  0  0  0  0  0  0  0  0  0
   47.9975   29.5142   22.7327 O   0  0  0  0  0  0  0  0  0  0  0  0
   45.5593   30.4445   20.0455 C   0  0  0  0  0  0  0  0  0  0  0  0
   45.3573   30.1159   18.7350 N   0  0  0  0  0  0  0  0  0  0  0  0
   44.5734   29.4512   16.1969 C   0  0  0  0  0  0  0  0  0  0  0  0
   39.1174   26.3545   20.7274 C   0  0  0  0  0  0  0  0  0  0  0  0
   39.8555   25.3230   19.5605 Cl  0  0  0  0  0  0  0  0  0  0  0  0
   38.0080   26.0633   21.4880 C   0  0  0  0  0  0  0  0  0  0  0  0
   37.6474   26.9028   22.4293 C   0  0  0  0  0  0  0  0  0  0  0  0
   36.1555   26.9924   22.6595 N   0  0  0  0  0  0  0  0  0  0  0  0
   35.7204   27.9609   21.6683 C   0  0  0  0  0  0  0  0  0  0  0  0
   36.7770   28.3553   20.9724 O   0  0  0  0  0  0  0  0  0  0  0  0
   34.5206   28.5845   21.2322 C   0  0  0  0  0  0  0  0  0  0  0  0
   34.6933   29.4399   19.6549 S   0  0  0  0  0  0  0  0  0  0  0  0
   35.6136   30.9065   19.5294 C   0  0  0  0  0  0  0  0  0  0  0  0
   35.6323   31.4663   18.2288 C   0  0  0  0  0  0  0  0  0  0  0  0
   36.2277   32.6262   17.8428 C   0  0  0  0  0  0  0  0  0  0  0  0
   36.9114   33.3548   18.9194 C   0  0  0  0  0  0  0  0  0  0  0  0
   37.5808   34.5467   18.5461 C   0  0  0  0  0  0  0  0  0  0  0  0
   38.2420   35.2092   19.3419 O   0  0  0  0  0  0  0  0  0  0  0  0
   37.4774   35.0041   17.1897 O   0  0  0  0  0  0  0  0  0  0  0  0
   36.8834   32.7923   20.2148 C   0  0  0  0  0  0  0  0  0  0  0  0
   36.2655   31.6442   20.4398 N   0  0  0  0  0  0  0  0  0  0  0  0
  1  2  1  0
  2  3  1  0
  3  4  2  0
  4  5  1  0
  5  6  1  0
  6  7  1  0
  7  8  1  0
  8  9  1  6
  8 10  1  0
 10 11  1  6
 10 12  1  0
 12 13  1  1
 12 14  1  0
 14 15  1  1
 14 16  1  0
 16 17  1  0
 17 18  1  0
 18 19  2  0
 19 20  1  0
 20 21  1  0
 20 22  2  0
 22 23  1  0
 23 24  1  0
 24 25  2  0
 25 26  1  0
 26 27  2  0
 27 28  1  0
 28 29  2  0
 28 30  1  0
 27 31  1  0
 31 32  2  0
 23 33  2  0
  5 34  2  0
 34 35  1  0
 34 36  1  0
 36 37  2  0
 37 38  1  0
 38 39  1  0
 39 40  2  0
 39 41  1  0
 41 42  1  0
 42 43  1  0
 43 44  2  0
 44 45  1  0
 45 46  2  0
 46 47  1  0
 47 48  2  0
 47 49  1  0
 46 50  1  0
 50 51  2  0
 37  3  1  0
 51 43  1  0
 33 18  1  0
 32 24  1  0
M  CHG  2  30  -1  49  -1
M  END
>  <shape_align_shape_tanimoto>  (3) 
0.28045099481196717

>  <shape_align_color_tanimoto>  (3) 
0.072621080011770298

>  <metric>  (3) 
combo

>  <metric_score>  (3) 
0.177

>  <template_pid>  (3) 
4I9H

>  <template_shape_score>  (3) 
0.280

>  <template_color_score>  (3) 
0.073

>  <template_combo_score>  (3) 
0.177

$$$$
