6FSD_shape_pose
     RDKit          3D

 21 22  0  0  0  0  0  0  0  0999 V2000
   38.0396   25.6995   10.2119 C   0  0  0  0  0  0  0  0  0  0  0  0
   37.1112   24.7209    9.5862 C   0  0  0  0  0  0  0  0  0  0  0  0
   36.9732   24.6124    8.2201 C   0  0  0  0  0  0  0  0  0  0  0  0
   36.0966   23.6775    7.7123 C   0  0  0  0  0  0  0  0  0  0  0  0
   35.3414   22.8346    8.5078 C   0  0  0  0  0  0  0  0  0  0  0  0
   34.5145   21.9448    7.9005 O   0  0  0  0  0  0  0  0  0  0  0  0
   33.6590   21.0191    8.4846 C   0  0  0  0  0  0  0  0  0  0  0  0
   32.5322   21.4977    9.2518 C   0  0  0  0  0  0  0  0  0  0  0  0
   31.7662   20.6382    9.7900 O   0  0  0  0  0  0  0  0  0  0  0  0
   32.1292   22.8657    9.4966 N   0  0  0  0  0  0  0  0  0  0  0  0
   30.9482   22.9902   10.2756 C   0  0  0  0  0  0  0  0  0  0  0  0
   30.3353   24.2998   10.5616 C   0  0  0  0  0  0  0  0  0  0  0  0
   31.0096   25.3537   11.2903 C   0  0  0  0  0  0  0  0  0  0  0  0
   32.1675   26.0269   10.9207 N   0  0  0  0  0  0  0  0  0  0  0  0
   33.3539   25.5550   11.6402 C   0  0  0  0  0  0  0  0  0  0  0  0
   34.4480   26.5830   11.6651 C   0  0  0  0  0  0  0  0  0  0  0  0
   34.6384   27.2623   10.3449 C   0  0  0  0  0  0  0  0  0  0  0  0
   33.9082   26.4916    9.2709 C   0  0  0  0  0  0  0  0  0  0  0  0
   32.4149   26.4089    9.5770 C   0  0  0  0  0  0  0  0  0  0  0  0
   35.4777   22.9434    9.8553 C   0  0  0  0  0  0  0  0  0  0  0  0
   36.3496   23.8729   10.3598 C   0  0  0  0  0  0  0  0  0  0  0  0
  1  2  1  0
  2  3  2  0
  3  4  1  0
  4  5  2  0
  5  6  1  0
  6  7  1  0
  7  8  1  0
  8  9  2  0
  8 10  1  0
 10 11  1  0
 11 12  1  0
 12 13  1  0
 13 14  1  0
 14 15  1  0
 15 16  1  0
 16 17  1  0
 17 18  1  0
 18 19  1  0
  5 20  1  0
 20 21  2  0
 21  2  1  0
 19 14  1  0
M  CHG  1  14   1
M  END
>  <shape_align_shape_tanimoto>  (1) 
0.47767278928843943

>  <shape_align_color_tanimoto>  (1) 
0.039768470019519352

>  <metric>  (1) 
shape

>  <metric_score>  (1) 
0.478

>  <template_pid>  (1) 
6FSD

>  <template_shape_score>  (1) 
0.478

>  <template_color_score>  (1) 
0.040

>  <template_combo_score>  (1) 
0.259

$$$$
6FSD_color_pose
     RDKit          3D

 21 22  0  0  0  0  0  0  0  0999 V2000
   38.7946   25.9775    9.0598 C   0  0  0  0  0  0  0  0  0  0  0  0
   37.6590   25.0188    9.0611 C   0  0  0  0  0  0  0  0  0  0  0  0
   37.8147   23.6689    8.7951 C   0  0  0  0  0  0  0  0  0  0  0  0
   36.7160   22.8070    8.8081 C   0  0  0  0  0  0  0  0  0  0  0  0
   35.4500   23.3287    9.0950 C   0  0  0  0  0  0  0  0  0  0  0  0
   34.3349   22.4817    9.1132 O   0  0  0  0  0  0  0  0  0  0  0  0
   33.0636   23.0380    9.4071 C   0  0  0  0  0  0  0  0  0  0  0  0
   32.0842   21.8930    9.3511 C   0  0  0  0  0  0  0  0  0  0  0  0
   32.5830   20.7829    9.0757 O   0  0  0  0  0  0  0  0  0  0  0  0
   30.7210   22.1497    9.6052 N   0  0  0  0  0  0  0  0  0  0  0  0
   29.6200   21.2646    9.5895 C   0  0  0  0  0  0  0  0  0  0  0  0
   29.1689   20.6855    8.2988 C   0  0  0  0  0  0  0  0  0  0  0  0
   30.1428   19.8975    7.5402 C   0  0  0  0  0  0  0  0  0  0  0  0
   29.5691   19.3140    6.3120 N   0  0  0  0  0  0  0  0  0  0  0  0
   28.3457   18.6189    6.5328 C   0  0  0  0  0  0  0  0  0  0  0  0
   27.1975   19.4366    5.9293 C   0  0  0  0  0  0  0  0  0  0  0  0
   27.4084   19.3439    4.4177 C   0  0  0  0  0  0  0  0  0  0  0  0
   28.7157   20.0219    4.1172 C   0  0  0  0  0  0  0  0  0  0  0  0
   29.5394   20.3455    5.3266 C   0  0  0  0  0  0  0  0  0  0  0  0
   35.3193   24.6811    9.3576 C   0  0  0  0  0  0  0  0  0  0  0  0
   36.4105   25.5217    9.3419 C   0  0  0  0  0  0  0  0  0  0  0  0
  1  2  1  0
  2  3  2  0
  3  4  1  0
  4  5  2  0
  5  6  1  0
  6  7  1  0
  7  8  1  0
  8  9  2  0
  8 10  1  0
 10 11  1  0
 11 12  1  0
 12 13  1  0
 13 14  1  0
 14 15  1  0
 15 16  1  0
 16 17  1  0
 17 18  1  0
 18 19  1  0
  5 20  1  0
 20 21  2  0
 21  2  1  0
 19 14  1  0
M  CHG  1  14   1
M  END
>  <shape_align_shape_tanimoto>  (2) 
0.43794646021159811

>  <shape_align_color_tanimoto>  (2) 
0.13302577132839008

>  <metric>  (2) 
color

>  <metric_score>  (2) 
0.133

>  <template_pid>  (2) 
6FSD

>  <template_shape_score>  (2) 
0.438

>  <template_color_score>  (2) 
0.133

>  <template_combo_score>  (2) 
0.285

$$$$
6FSD_combo_pose
     RDKit          3D

 21 22  0  0  0  0  0  0  0  0999 V2000
   37.9408   27.0744   10.0833 C   0  0  0  0  0  0  0  0  0  0  0  0
   37.2187   25.8645    9.6353 C   0  0  0  0  0  0  0  0  0  0  0  0
   35.8577   25.8754    9.4587 C   0  0  0  0  0  0  0  0  0  0  0  0
   35.2529   24.7085    9.0386 C   0  0  0  0  0  0  0  0  0  0  0  0
   35.9245   23.5390    8.7863 C   0  0  0  0  0  0  0  0  0  0  0  0
   35.4258   22.3630    8.3768 O   0  0  0  0  0  0  0  0  0  0  0  0
   34.2307   21.8215    8.0560 C   0  0  0  0  0  0  0  0  0  0  0  0
   33.2454   21.8689    9.1669 C   0  0  0  0  0  0  0  0  0  0  0  0
   33.6223   22.4067   10.2360 O   0  0  0  0  0  0  0  0  0  0  0  0
   31.9145   21.3133    9.0183 N   0  0  0  0  0  0  0  0  0  0  0  0
   31.0622   21.4405   10.1844 C   0  0  0  0  0  0  0  0  0  0  0  0
   30.7097   22.8380   10.5160 C   0  0  0  0  0  0  0  0  0  0  0  0
   29.8839   23.5789    9.5713 C   0  0  0  0  0  0  0  0  0  0  0  0
   30.2204   23.7927    8.2352 N   0  0  0  0  0  0  0  0  0  0  0  0
   29.0078   24.3682    7.5981 C   0  0  0  0  0  0  0  0  0  0  0  0
   29.1015   25.8395    7.4478 C   0  0  0  0  0  0  0  0  0  0  0  0
   29.9211   26.5746    8.4491 C   0  0  0  0  0  0  0  0  0  0  0  0
   31.2592   25.9246    8.7504 C   0  0  0  0  0  0  0  0  0  0  0  0
   31.2837   24.6689    7.8965 C   0  0  0  0  0  0  0  0  0  0  0  0
   37.3190   23.5939    8.9867 C   0  0  0  0  0  0  0  0  0  0  0  0
   37.9584   24.7295    9.4023 C   0  0  0  0  0  0  0  0  0  0  0  0
  1  2  1  0
  2  3  2  0
  3  4  1  0
  4  5  2  0
  5  6  1  0
  6  7  1  0
  7  8  1  0
  8  9  2  0
  8 10  1  0
 10 11  1  0
 11 12  1  0
 12 13  1  0
 13 14  1  0
 14 15  1  0
 15 16  1  0
 16 17  1  0
 17 18  1  0
 18 19  1  0
  5 20  1  0
 20 21  2  0
 21  2  1  0
 19 14  1  0
M  CHG  1  14   1
M  END
>  <shape_align_shape_tanimoto>  (3) 
0.45629994888035269

>  <shape_align_color_tanimoto>  (3) 
0.12696793214651902

>  <metric>  (3) 
combo

>  <metric_score>  (3) 
0.292

>  <template_pid>  (3) 
6FSD

>  <template_shape_score>  (3) 
0.456

>  <template_color_score>  (3) 
0.127

>  <template_combo_score>  (3) 
0.292

$$$$
