1QBT_shape_pose
     RDKit          3D

 62 70  0  0  0  0  0  0  0  0999 V2000
   73.1701   62.0654   22.0568 O   0  0  0  0  0  0  0  0  0  0  0  0
   73.0917   61.9084   20.8037 C   0  0  0  0  0  0  0  0  0  0  0  0
   72.7751   63.0352   20.0522 N   0  0  0  0  0  0  0  0  0  0  0  0
   72.5678   64.2739   20.6901 C   0  0  0  0  0  0  0  0  0  0  0  0
   72.6473   64.4655   22.0043 N   0  0  0  0  0  0  0  0  0  0  0  0
   72.4076   65.7292   22.3405 C   0  0  0  0  0  0  0  0  0  0  0  0
   72.3777   66.3879   23.5454 C   0  0  0  0  0  0  0  0  0  0  0  0
   72.0975   67.7238   23.6050 C   0  0  0  0  0  0  0  0  0  0  0  0
   71.8499   68.3729   22.4158 C   0  0  0  0  0  0  0  0  0  0  0  0
   71.8839   67.7010   21.2229 C   0  0  0  0  0  0  0  0  0  0  0  0
   72.1617   66.3659   21.1465 C   0  0  0  0  0  0  0  0  0  0  0  0
   72.2636   65.4648   20.1552 N   0  0  0  0  0  0  0  0  0  0  0  0
   73.3351   60.5922   20.2606 C   0  0  0  0  0  0  0  0  0  0  0  0
   73.7010   59.6253   21.1832 C   0  0  0  0  0  0  0  0  0  0  0  0
   73.9626   58.3850   20.7197 C   0  0  0  0  0  0  0  0  0  0  0  0
   73.8698   58.0885   19.3764 C   0  0  0  0  0  0  0  0  0  0  0  0
   73.5083   59.0244   18.4375 C   0  0  0  0  0  0  0  0  0  0  0  0
   73.4605   58.6651   17.0530 C   0  0  0  0  0  0  0  0  0  0  0  0
   72.2297   58.2315   16.4621 N   0  0  0  0  0  0  0  0  0  0  0  0
   71.9339   56.8516   16.5971 C   0  0  0  0  0  0  0  0  0  0  0  0
   72.1614   56.3299   17.6869 O   0  0  0  0  0  0  0  0  0  0  0  0
   71.3993   55.9150   15.6563 N   0  0  0  0  0  0  0  0  0  0  0  0
   71.0338   54.6542   16.2220 C   0  0  0  0  0  0  0  0  0  0  0  0
   69.5978   54.5107   16.5042 C   0  0  0  0  0  0  0  0  0  0  0  0
   68.9847   54.9870   17.6222 C   0  0  0  0  0  0  0  0  0  0  0  0
   67.6320   54.7273   17.7390 C   0  0  0  0  0  0  0  0  0  0  0  0
   66.9372   54.0301   16.7895 C   0  0  0  0  0  0  0  0  0  0  0  0
   67.5523   53.5483   15.6615 C   0  0  0  0  0  0  0  0  0  0  0  0
   66.8787   52.7866   14.6428 C   0  0  0  0  0  0  0  0  0  0  0  0
   67.5527   52.3858   13.6454 O   0  0  0  0  0  0  0  0  0  0  0  0
   65.5082   52.4549   14.6889 N   0  0  0  0  0  0  0  0  0  0  0  0
   65.0126   51.6673   13.6310 C   0  0  0  0  0  0  0  0  0  0  0  0
   65.0411   50.3136   13.7222 N   0  0  0  0  0  0  0  0  0  0  0  0
   64.5403   49.7745   12.6206 C   0  0  0  0  0  0  0  0  0  0  0  0
   64.3642   48.4670   12.2495 C   0  0  0  0  0  0  0  0  0  0  0  0
   63.8115   48.2177   11.0199 C   0  0  0  0  0  0  0  0  0  0  0  0
   63.4373   49.2429   10.1677 C   0  0  0  0  0  0  0  0  0  0  0  0
   63.6428   50.5339   10.6029 C   0  0  0  0  0  0  0  0  0  0  0  0
   64.1881   50.8284   11.8162 C   0  0  0  0  0  0  0  0  0  0  0  0
   64.4903   51.9794   12.4651 N   0  0  0  0  0  0  0  0  0  0  0  0
   68.8850   53.8032   15.5427 C   0  0  0  0  0  0  0  0  0  0  0  0
   71.2205   56.1703   14.2733 C   0  0  2  0  0  0  0  0  0  0  0  0
   72.5131   56.0336   13.4967 C   0  0  0  0  0  0  0  0  0  0  0  0
   73.0638   54.6804   13.6342 C   0  0  0  0  0  0  0  0  0  0  0  0
   73.9594   54.4766   14.6737 C   0  0  0  0  0  0  0  0  0  0  0  0
   74.5285   53.2512   14.8910 C   0  0  0  0  0  0  0  0  0  0  0  0
   74.1877   52.2124   14.0434 C   0  0  0  0  0  0  0  0  0  0  0  0
   73.2974   52.4121   13.0083 C   0  0  0  0  0  0  0  0  0  0  0  0
   72.7269   53.6560   12.7977 C   0  0  0  0  0  0  0  0  0  0  0  0
   70.5922   57.5088   14.0230 C   0  0  2  0  0  0  0  0  0  0  0  0
   70.2935   57.5168   12.6573 O   0  0  0  0  0  0  0  0  0  0  0  0
   71.4267   58.6770   14.2978 C   0  0  1  0  0  0  0  0  0  0  0  0
   71.0251   59.7631   13.4975 O   0  0  0  0  0  0  0  0  0  0  0  0
   71.4283   59.1618   15.7285 C   0  0  1  0  0  0  0  0  0  0  0  0
   70.0632   59.2614   16.2766 C   0  0  0  0  0  0  0  0  0  0  0  0
   70.0599   59.7214   17.6662 C   0  0  0  0  0  0  0  0  0  0  0  0
   70.0691   58.8735   18.7450 C   0  0  0  0  0  0  0  0  0  0  0  0
   70.0373   59.4283   19.9885 C   0  0  0  0  0  0  0  0  0  0  0  0
   69.9976   60.7800   20.1740 C   0  0  0  0  0  0  0  0  0  0  0  0
   69.9887   61.6338   19.1201 C   0  0  0  0  0  0  0  0  0  0  0  0
   70.0204   61.0843   17.8640 C   0  0  0  0  0  0  0  0  0  0  0  0
   73.2415   60.2965   18.9297 C   0  0  0  0  0  0  0  0  0  0  0  0
  1  2  2  0
  2  3  1  0
  3  4  1  0
  4  5  2  0
  5  6  1  0
  6  7  2  0
  7  8  1  0
  8  9  2  0
  9 10  1  0
 10 11  2  0
 11 12  1  0
  2 13  1  0
 13 14  2  0
 14 15  1  0
 15 16  2  0
 16 17  1  0
 17 18  1  0
 18 19  1  0
 19 20  1  0
 20 21  2  0
 20 22  1  0
 22 23  1  0
 23 24  1  0
 24 25  2  0
 25 26  1  0
 26 27  2  0
 27 28  1  0
 28 29  1  0
 29 30  2  0
 29 31  1  0
 31 32  1  0
 32 33  2  0
 33 34  1  0
 34 35  2  0
 35 36  1  0
 36 37  2  0
 37 38  1  0
 38 39  2  0
 39 40  1  0
 28 41  2  0
 22 42  1  0
 42 43  1  6
 43 44  1  0
 44 45  2  0
 45 46  1  0
 46 47  2  0
 47 48  1  0
 48 49  2  0
 42 50  1  0
 50 51  1  6
 50 52  1  0
 52 53  1  6
 52 54  1  0
 54 55  1  1
 55 56  1  0
 56 57  2  0
 57 58  1  0
 58 59  2  0
 59 60  1  0
 60 61  2  0
 17 62  2  0
 12  4  1  0
 62 13  1  0
 11  6  1  0
 54 19  1  0
 61 56  1  0
 41 24  1  0
 49 44  1  0
 40 32  1  0
 39 34  1  0
M  END
>  <shape_align_shape_tanimoto>  (1) 
0.41120859949545147

>  <shape_align_color_tanimoto>  (1) 
0.029407819059977785

>  <metric>  (1) 
shape

>  <metric_score>  (1) 
0.411

>  <template_pid>  (1) 
1QBT

>  <template_shape_score>  (1) 
0.411

>  <template_color_score>  (1) 
0.029

>  <template_combo_score>  (1) 
0.220

$$$$
1QBT_color_pose
     RDKit          3D

 62 70  0  0  0  0  0  0  0  0999 V2000
   72.7923   61.0289   20.6044 O   0  0  0  0  0  0  0  0  0  0  0  0
   72.5920   60.2683   19.6323 C   0  0  0  0  0  0  0  0  0  0  0  0
   73.7258   59.8252   18.8423 N   0  0  0  0  0  0  0  0  0  0  0  0
   74.9839   60.3713   19.2777 C   0  0  0  0  0  0  0  0  0  0  0  0
   75.4091   61.5640   18.7892 N   0  0  0  0  0  0  0  0  0  0  0  0
   76.5970   61.8430   19.3521 C   0  0  0  0  0  0  0  0  0  0  0  0
   77.4196   62.9263   19.1799 C   0  0  0  0  0  0  0  0  0  0  0  0
   78.5951   62.9519   19.8953 C   0  0  0  0  0  0  0  0  0  0  0  0
   78.9120   61.9178   20.7455 C   0  0  0  0  0  0  0  0  0  0  0  0
   78.0576   60.8250   20.9038 C   0  0  0  0  0  0  0  0  0  0  0  0
   76.8714   60.7847   20.1908 C   0  0  0  0  0  0  0  0  0  0  0  0
   75.8724   59.8739   20.1439 N   0  0  0  0  0  0  0  0  0  0  0  0
   71.2303   59.8367   19.2944 C   0  0  0  0  0  0  0  0  0  0  0  0
   70.2312   60.3905   20.0954 C   0  0  0  0  0  0  0  0  0  0  0  0
   68.9374   60.0532   19.7924 C   0  0  0  0  0  0  0  0  0  0  0  0
   68.6379   59.2051   18.7435 C   0  0  0  0  0  0  0  0  0  0  0  0
   69.6067   58.6349   17.9275 C   0  0  0  0  0  0  0  0  0  0  0  0
   69.2250   57.7947   16.8315 C   0  0  0  0  0  0  0  0  0  0  0  0
   69.0498   56.3961   16.9006 N   0  0  0  0  0  0  0  0  0  0  0  0
   67.7389   55.9403   17.3060 C   0  0  0  0  0  0  0  0  0  0  0  0
   67.1652   56.5691   18.2045 O   0  0  0  0  0  0  0  0  0  0  0  0
   66.9419   54.8312   16.8244 N   0  0  0  0  0  0  0  0  0  0  0  0
   65.9795   54.4053   17.8009 C   0  0  0  0  0  0  0  0  0  0  0  0
   66.3776   53.3673   18.7477 C   0  0  0  0  0  0  0  0  0  0  0  0
   65.9610   52.0421   18.6117 C   0  0  0  0  0  0  0  0  0  0  0  0
   66.3257   51.0413   19.4748 C   0  0  0  0  0  0  0  0  0  0  0  0
   67.1446   51.3079   20.5463 C   0  0  0  0  0  0  0  0  0  0  0  0
   67.5859   52.6182   20.7209 C   0  0  0  0  0  0  0  0  0  0  0  0
   68.4563   52.8459   21.8673 C   0  0  0  0  0  0  0  0  0  0  0  0
   68.6925   51.8720   22.6578 O   0  0  0  0  0  0  0  0  0  0  0  0
   69.0656   54.1024   22.1583 N   0  0  0  0  0  0  0  0  0  0  0  0
   69.8966   54.1460   23.3150 C   0  0  0  0  0  0  0  0  0  0  0  0
   69.5730   54.4485   24.5942 N   0  0  0  0  0  0  0  0  0  0  0  0
   70.6975   54.3383   25.3434 C   0  0  0  0  0  0  0  0  0  0  0  0
   70.9758   54.5182   26.7017 C   0  0  0  0  0  0  0  0  0  0  0  0
   72.2531   54.3266   27.2128 C   0  0  0  0  0  0  0  0  0  0  0  0
   73.2672   53.9466   26.3408 C   0  0  0  0  0  0  0  0  0  0  0  0
   73.0284   53.7578   24.9817 C   0  0  0  0  0  0  0  0  0  0  0  0
   71.7511   53.9582   24.5173 C   0  0  0  0  0  0  0  0  0  0  0  0
   71.2098   53.8555   23.2945 N   0  0  0  0  0  0  0  0  0  0  0  0
   67.2047   53.6080   19.8396 C   0  0  0  0  0  0  0  0  0  0  0  0
   67.0203   54.2195   15.5033 C   0  0  2  0  0  0  0  0  0  0  0  0
   66.4002   52.8937   15.3700 C   0  0  0  0  0  0  0  0  0  0  0  0
   66.4484   52.2572   14.0332 C   0  0  0  0  0  0  0  0  0  0  0  0
   67.4032   51.3371   13.6492 C   0  0  0  0  0  0  0  0  0  0  0  0
   67.3491   50.8067   12.3548 C   0  0  0  0  0  0  0  0  0  0  0  0
   66.3830   51.1624   11.4488 C   0  0  0  0  0  0  0  0  0  0  0  0
   65.4229   52.0922   11.8478 C   0  0  0  0  0  0  0  0  0  0  0  0
   65.4631   52.6255   13.1212 C   0  0  0  0  0  0  0  0  0  0  0  0
   68.4309   54.3806   15.0037 C   0  0  2  0  0  0  0  0  0  0  0  0
   68.6952   53.6922   13.8385 O   0  0  0  0  0  0  0  0  0  0  0  0
   69.4870   54.1865   16.0642 C   0  0  1  0  0  0  0  0  0  0  0  0
   70.3272   53.1863   15.7123 O   0  0  0  0  0  0  0  0  0  0  0  0
   70.1223   55.4742   16.5420 C   0  0  1  0  0  0  0  0  0  0  0  0
   71.1878   56.0390   15.6916 C   0  0  0  0  0  0  0  0  0  0  0  0
   72.2456   55.0438   15.3762 C   0  0  0  0  0  0  0  0  0  0  0  0
   73.2852   54.8216   16.2745 C   0  0  0  0  0  0  0  0  0  0  0  0
   74.3130   53.9431   16.0386 C   0  0  0  0  0  0  0  0  0  0  0  0
   74.3521   53.2213   14.8554 C   0  0  0  0  0  0  0  0  0  0  0  0
   73.3162   53.4332   13.9441 C   0  0  0  0  0  0  0  0  0  0  0  0
   72.2940   54.3219   14.2042 C   0  0  0  0  0  0  0  0  0  0  0  0
   70.9233   58.9963   18.2587 C   0  0  0  0  0  0  0  0  0  0  0  0
  1  2  2  0
  2  3  1  0
  3  4  1  0
  4  5  2  0
  5  6  1  0
  6  7  2  0
  7  8  1  0
  8  9  2  0
  9 10  1  0
 10 11  2  0
 11 12  1  0
  2 13  1  0
 13 14  2  0
 14 15  1  0
 15 16  2  0
 16 17  1  0
 17 18  1  0
 18 19  1  0
 19 20  1  0
 20 21  2  0
 20 22  1  0
 22 23  1  0
 23 24  1  0
 24 25  2  0
 25 26  1  0
 26 27  2  0
 27 28  1  0
 28 29  1  0
 29 30  2  0
 29 31  1  0
 31 32  1  0
 32 33  2  0
 33 34  1  0
 34 35  2  0
 35 36  1  0
 36 37  2  0
 37 38  1  0
 38 39  2  0
 39 40  1  0
 28 41  2  0
 22 42  1  0
 42 43  1  1
 43 44  1  0
 44 45  2  0
 45 46  1  0
 46 47  2  0
 47 48  1  0
 48 49  2  0
 42 50  1  0
 50 51  1  6
 50 52  1  0
 52 53  1  6
 52 54  1  0
 54 55  1  6
 55 56  1  0
 56 57  2  0
 57 58  1  0
 58 59  2  0
 59 60  1  0
 60 61  2  0
 17 62  2  0
 12  4  1  0
 62 13  1  0
 11  6  1  0
 54 19  1  0
 61 56  1  0
 41 24  1  0
 49 44  1  0
 40 32  1  0
 39 34  1  0
M  END
>  <shape_align_shape_tanimoto>  (2) 
0.3752418514768146

>  <shape_align_color_tanimoto>  (2) 
0.080894920438258813

>  <metric>  (2) 
color

>  <metric_score>  (2) 
0.081

>  <template_pid>  (2) 
1QBT

>  <template_shape_score>  (2) 
0.375

>  <template_color_score>  (2) 
0.081

>  <template_combo_score>  (2) 
0.228

$$$$
1QBT_combo_pose
     RDKit          3D

 62 70  0  0  0  0  0  0  0  0999 V2000
   72.7923   61.0289   20.6044 O   0  0  0  0  0  0  0  0  0  0  0  0
   72.5920   60.2683   19.6323 C   0  0  0  0  0  0  0  0  0  0  0  0
   73.7258   59.8252   18.8423 N   0  0  0  0  0  0  0  0  0  0  0  0
   74.9839   60.3713   19.2777 C   0  0  0  0  0  0  0  0  0  0  0  0
   75.4091   61.5640   18.7892 N   0  0  0  0  0  0  0  0  0  0  0  0
   76.5970   61.8430   19.3521 C   0  0  0  0  0  0  0  0  0  0  0  0
   77.4196   62.9263   19.1799 C   0  0  0  0  0  0  0  0  0  0  0  0
   78.5951   62.9519   19.8953 C   0  0  0  0  0  0  0  0  0  0  0  0
   78.9120   61.9178   20.7455 C   0  0  0  0  0  0  0  0  0  0  0  0
   78.0576   60.8250   20.9038 C   0  0  0  0  0  0  0  0  0  0  0  0
   76.8714   60.7847   20.1908 C   0  0  0  0  0  0  0  0  0  0  0  0
   75.8724   59.8739   20.1439 N   0  0  0  0  0  0  0  0  0  0  0  0
   71.2303   59.8367   19.2944 C   0  0  0  0  0  0  0  0  0  0  0  0
   70.2312   60.3905   20.0954 C   0  0  0  0  0  0  0  0  0  0  0  0
   68.9374   60.0532   19.7924 C   0  0  0  0  0  0  0  0  0  0  0  0
   68.6379   59.2051   18.7435 C   0  0  0  0  0  0  0  0  0  0  0  0
   69.6067   58.6349   17.9275 C   0  0  0  0  0  0  0  0  0  0  0  0
   69.2250   57.7947   16.8315 C   0  0  0  0  0  0  0  0  0  0  0  0
   69.0498   56.3961   16.9006 N   0  0  0  0  0  0  0  0  0  0  0  0
   67.7389   55.9403   17.3060 C   0  0  0  0  0  0  0  0  0  0  0  0
   67.1652   56.5691   18.2045 O   0  0  0  0  0  0  0  0  0  0  0  0
   66.9419   54.8312   16.8244 N   0  0  0  0  0  0  0  0  0  0  0  0
   65.9795   54.4053   17.8009 C   0  0  0  0  0  0  0  0  0  0  0  0
   66.3776   53.3673   18.7477 C   0  0  0  0  0  0  0  0  0  0  0  0
   65.9610   52.0421   18.6117 C   0  0  0  0  0  0  0  0  0  0  0  0
   66.3257   51.0413   19.4748 C   0  0  0  0  0  0  0  0  0  0  0  0
   67.1446   51.3079   20.5463 C   0  0  0  0  0  0  0  0  0  0  0  0
   67.5859   52.6182   20.7209 C   0  0  0  0  0  0  0  0  0  0  0  0
   68.4563   52.8459   21.8673 C   0  0  0  0  0  0  0  0  0  0  0  0
   68.6925   51.8720   22.6578 O   0  0  0  0  0  0  0  0  0  0  0  0
   69.0656   54.1024   22.1583 N   0  0  0  0  0  0  0  0  0  0  0  0
   69.8966   54.1460   23.3150 C   0  0  0  0  0  0  0  0  0  0  0  0
   69.5730   54.4485   24.5942 N   0  0  0  0  0  0  0  0  0  0  0  0
   70.6975   54.3383   25.3434 C   0  0  0  0  0  0  0  0  0  0  0  0
   70.9758   54.5182   26.7017 C   0  0  0  0  0  0  0  0  0  0  0  0
   72.2531   54.3266   27.2128 C   0  0  0  0  0  0  0  0  0  0  0  0
   73.2672   53.9466   26.3408 C   0  0  0  0  0  0  0  0  0  0  0  0
   73.0284   53.7578   24.9817 C   0  0  0  0  0  0  0  0  0  0  0  0
   71.7511   53.9582   24.5173 C   0  0  0  0  0  0  0  0  0  0  0  0
   71.2098   53.8555   23.2945 N   0  0  0  0  0  0  0  0  0  0  0  0
   67.2047   53.6080   19.8396 C   0  0  0  0  0  0  0  0  0  0  0  0
   67.0203   54.2195   15.5033 C   0  0  2  0  0  0  0  0  0  0  0  0
   66.4002   52.8937   15.3700 C   0  0  0  0  0  0  0  0  0  0  0  0
   66.4484   52.2572   14.0332 C   0  0  0  0  0  0  0  0  0  0  0  0
   67.4032   51.3371   13.6492 C   0  0  0  0  0  0  0  0  0  0  0  0
   67.3491   50.8067   12.3548 C   0  0  0  0  0  0  0  0  0  0  0  0
   66.3830   51.1624   11.4488 C   0  0  0  0  0  0  0  0  0  0  0  0
   65.4229   52.0922   11.8478 C   0  0  0  0  0  0  0  0  0  0  0  0
   65.4631   52.6255   13.1212 C   0  0  0  0  0  0  0  0  0  0  0  0
   68.4309   54.3806   15.0037 C   0  0  2  0  0  0  0  0  0  0  0  0
   68.6952   53.6922   13.8385 O   0  0  0  0  0  0  0  0  0  0  0  0
   69.4870   54.1865   16.0642 C   0  0  1  0  0  0  0  0  0  0  0  0
   70.3272   53.1863   15.7123 O   0  0  0  0  0  0  0  0  0  0  0  0
   70.1223   55.4742   16.5420 C   0  0  1  0  0  0  0  0  0  0  0  0
   71.1878   56.0390   15.6916 C   0  0  0  0  0  0  0  0  0  0  0  0
   72.2456   55.0438   15.3762 C   0  0  0  0  0  0  0  0  0  0  0  0
   73.2852   54.8216   16.2745 C   0  0  0  0  0  0  0  0  0  0  0  0
   74.3130   53.9431   16.0386 C   0  0  0  0  0  0  0  0  0  0  0  0
   74.3521   53.2213   14.8554 C   0  0  0  0  0  0  0  0  0  0  0  0
   73.3162   53.4332   13.9441 C   0  0  0  0  0  0  0  0  0  0  0  0
   72.2940   54.3219   14.2042 C   0  0  0  0  0  0  0  0  0  0  0  0
   70.9233   58.9963   18.2587 C   0  0  0  0  0  0  0  0  0  0  0  0
  1  2  2  0
  2  3  1  0
  3  4  1  0
  4  5  2  0
  5  6  1  0
  6  7  2  0
  7  8  1  0
  8  9  2  0
  9 10  1  0
 10 11  2  0
 11 12  1  0
  2 13  1  0
 13 14  2  0
 14 15  1  0
 15 16  2  0
 16 17  1  0
 17 18  1  0
 18 19  1  0
 19 20  1  0
 20 21  2  0
 20 22  1  0
 22 23  1  0
 23 24  1  0
 24 25  2  0
 25 26  1  0
 26 27  2  0
 27 28  1  0
 28 29  1  0
 29 30  2  0
 29 31  1  0
 31 32  1  0
 32 33  2  0
 33 34  1  0
 34 35  2  0
 35 36  1  0
 36 37  2  0
 37 38  1  0
 38 39  2  0
 39 40  1  0
 28 41  2  0
 22 42  1  0
 42 43  1  1
 43 44  1  0
 44 45  2  0
 45 46  1  0
 46 47  2  0
 47 48  1  0
 48 49  2  0
 42 50  1  0
 50 51  1  6
 50 52  1  0
 52 53  1  6
 52 54  1  0
 54 55  1  6
 55 56  1  0
 56 57  2  0
 57 58  1  0
 58 59  2  0
 59 60  1  0
 60 61  2  0
 17 62  2  0
 12  4  1  0
 62 13  1  0
 11  6  1  0
 54 19  1  0
 61 56  1  0
 41 24  1  0
 49 44  1  0
 40 32  1  0
 39 34  1  0
M  END
>  <shape_align_shape_tanimoto>  (3) 
0.3752418514768146

>  <shape_align_color_tanimoto>  (3) 
0.080894920438258813

>  <metric>  (3) 
combo

>  <metric_score>  (3) 
0.228

>  <template_pid>  (3) 
1QBT

>  <template_shape_score>  (3) 
0.375

>  <template_color_score>  (3) 
0.081

>  <template_combo_score>  (3) 
0.228

$$$$
