3P78_shape_pose
     RDKit          3D

 33 36  0  0  0  0  0  0  0  0999 V2000
    7.9985    3.1948   28.8435 C   0  0  0  0  0  0  0  0  0  0  0  0
    9.4945    3.3761   28.9900 C   0  0  0  0  0  0  0  0  0  0  0  0
    9.7231    4.4228   30.0604 C   0  0  0  0  0  0  0  0  0  0  0  0
   10.1358    3.7788   27.7039 C   0  0  0  0  0  0  0  0  0  0  0  0
   10.0690    2.1241   29.4925 C   0  0  0  0  0  0  0  0  0  0  0  0
   10.2745    1.7072   30.7629 C   0  0  0  0  0  0  0  0  0  0  0  0
   10.8234    0.5072   31.0211 C   0  0  0  0  0  0  0  0  0  0  0  0
   11.1138   -0.1386   32.2896 C   0  0  0  0  0  0  0  0  0  0  0  0
   11.5275   -1.3608   32.2351 O   0  0  0  0  0  0  0  0  0  0  0  0
   11.0211    0.3474   33.5967 N   0  0  0  0  0  0  0  0  0  0  0  0
   11.3870   -0.6321   34.6436 C   0  0  0  0  0  0  0  0  0  0  0  0
   10.4531   -0.4841   35.8069 C   0  0  0  0  0  0  0  0  0  0  0  0
    8.8543    0.1332   35.2734 S   0  0  0  0  0  0  0  0  0  0  0  0
    8.0221    0.5480   36.4235 O   0  0  0  0  0  0  0  0  0  0  0  0
    8.1978   -0.9279   34.4489 O   0  0  0  0  0  0  0  0  0  0  0  0
    9.1210    1.5955   34.2508 C   0  0  0  0  0  0  0  0  0  0  0  0
   10.6467    1.6418   34.0738 C   0  0  0  0  0  0  0  0  0  0  0  0
   11.1399   -0.2237   29.8184 C   0  0  0  0  0  0  0  0  0  0  0  0
   11.7159   -1.4897   29.6727 N   0  0  0  0  0  0  0  0  0  0  0  0
   13.1355   -1.6367   29.5810 C   0  0  0  0  0  0  0  0  0  0  0  0
   13.8176   -0.6129   29.6358 O   0  0  0  0  0  0  0  0  0  0  0  0
   13.7024   -2.9038   29.4354 N   0  0  0  0  0  0  0  0  0  0  0  0
   15.0747   -3.2204   29.3312 C   0  0  0  0  0  0  0  0  0  0  0  0
   16.1041   -2.3137   29.3579 C   0  0  0  0  0  0  0  0  0  0  0  0
   17.4461   -2.6984   29.2487 C   0  0  0  0  0  0  0  0  0  0  0  0
   17.7879   -4.0213   29.1085 C   0  0  0  0  0  0  0  0  0  0  0  0
   19.1160   -4.3751   29.0029 C   0  0  0  0  0  0  0  0  0  0  0  0
   19.4140   -5.7125   28.8637 C   0  0  0  0  0  0  0  0  0  0  0  0
   18.3859   -6.6338   28.8356 C   0  0  0  0  0  0  0  0  0  0  0  0
   17.0549   -6.2759   28.9417 C   0  0  0  0  0  0  0  0  0  0  0  0
   16.7580   -4.9370   29.0810 C   0  0  0  0  0  0  0  0  0  0  0  0
   15.4441   -4.5553   29.1883 C   0  0  0  0  0  0  0  0  0  0  0  0
   10.6806    0.7500   28.4986 S   0  0  0  0  0  0  0  0  0  0  0  0
  1  2  1  0
  2  3  1  0
  2  4  1  0
  2  5  1  0
  5  6  2  0
  6  7  1  0
  7  8  1  0
  8  9  2  0
  8 10  1  0
 10 11  1  0
 11 12  1  0
 12 13  1  0
 13 14  2  0
 13 15  2  0
 13 16  1  0
 16 17  1  0
  7 18  2  0
 18 19  1  0
 19 20  1  0
 20 21  2  0
 20 22  1  0
 22 23  1  0
 23 24  2  0
 24 25  1  0
 25 26  2  0
 26 27  1  0
 27 28  2  0
 28 29  1  0
 29 30  2  0
 30 31  1  0
 31 32  2  0
 18 33  1  0
 33  5  1  0
 17 10  1  0
 32 23  1  0
 31 26  1  0
M  END
>  <shape_align_shape_tanimoto>  (1) 
0.71712503872800182

>  <shape_align_color_tanimoto>  (1) 
0.046460704776429433

>  <metric>  (1) 
shape

>  <metric_score>  (1) 
0.717

>  <template_pid>  (1) 
3P78

>  <template_shape_score>  (1) 
0.717

>  <template_color_score>  (1) 
0.046

>  <template_combo_score>  (1) 
0.382

$$$$
3P78_color_pose
     RDKit          3D

 33 36  0  0  0  0  0  0  0  0999 V2000
   11.3406    2.7193   27.2100 C   0  0  0  0  0  0  0  0  0  0  0  0
   10.3461    2.9819   28.2830 C   0  0  0  0  0  0  0  0  0  0  0  0
   10.5356    4.3507   28.8670 C   0  0  0  0  0  0  0  0  0  0  0  0
    8.9184    2.8834   27.7866 C   0  0  0  0  0  0  0  0  0  0  0  0
   10.4935    1.9103   29.3123 C   0  0  0  0  0  0  0  0  0  0  0  0
   11.3611    0.8377   29.3449 C   0  0  0  0  0  0  0  0  0  0  0  0
   11.2942   -0.0015   30.4056 C   0  0  0  0  0  0  0  0  0  0  0  0
   12.1377   -1.1935   30.6140 C   0  0  0  0  0  0  0  0  0  0  0  0
   11.8813   -1.8146   31.7143 O   0  0  0  0  0  0  0  0  0  0  0  0
   13.1435   -1.7397   29.8262 N   0  0  0  0  0  0  0  0  0  0  0  0
   13.6482   -1.2864   28.5682 C   0  0  0  0  0  0  0  0  0  0  0  0
   14.7598   -2.1706   28.0073 C   0  0  0  0  0  0  0  0  0  0  0  0
   16.0457   -2.2649   29.2351 S   0  0  0  0  0  0  0  0  0  0  0  0
   16.7293   -0.9248   29.2969 O   0  0  0  0  0  0  0  0  0  0  0  0
   17.0059   -3.3827   28.9419 O   0  0  0  0  0  0  0  0  0  0  0  0
   15.1849   -2.5435   30.8018 C   0  0  0  0  0  0  0  0  0  0  0  0
   13.7778   -2.9616   30.3678 C   0  0  0  0  0  0  0  0  0  0  0  0
   10.3496    0.3226   31.3430 C   0  0  0  0  0  0  0  0  0  0  0  0
    9.9692   -0.2974   32.5826 N   0  0  0  0  0  0  0  0  0  0  0  0
   10.5405    0.0117   33.8208 C   0  0  0  0  0  0  0  0  0  0  0  0
   11.4585    0.8702   33.9981 O   0  0  0  0  0  0  0  0  0  0  0  0
   10.0774   -0.6710   34.9792 N   0  0  0  0  0  0  0  0  0  0  0  0
   10.5985   -0.4249   36.2852 C   0  0  0  0  0  0  0  0  0  0  0  0
   11.6692   -1.1186   36.8100 C   0  0  0  0  0  0  0  0  0  0  0  0
   12.1136   -0.8201   38.0806 C   0  0  0  0  0  0  0  0  0  0  0  0
   11.5095    0.1613   38.8437 C   0  0  0  0  0  0  0  0  0  0  0  0
   11.9599    0.4562   40.1163 C   0  0  0  0  0  0  0  0  0  0  0  0
   11.3269    1.4434   40.8403 C   0  0  0  0  0  0  0  0  0  0  0  0
   10.2552    2.1491   40.3353 C   0  0  0  0  0  0  0  0  0  0  0  0
    9.8261    1.8328   39.0596 C   0  0  0  0  0  0  0  0  0  0  0  0
   10.4249    0.8508   38.2881 C   0  0  0  0  0  0  0  0  0  0  0  0
    9.9691    0.5628   37.0179 C   0  0  0  0  0  0  0  0  0  0  0  0
    9.5393    1.7723   30.7960 S   0  0  0  0  0  0  0  0  0  0  0  0
  1  2  1  0
  2  3  1  0
  2  4  1  0
  2  5  1  0
  5  6  2  0
  6  7  1  0
  7  8  1  0
  8  9  2  0
  8 10  1  0
 10 11  1  0
 11 12  1  0
 12 13  1  0
 13 14  2  0
 13 15  2  0
 13 16  1  0
 16 17  1  0
  7 18  2  0
 18 19  1  0
 19 20  1  0
 20 21  2  0
 20 22  1  0
 22 23  1  0
 23 24  2  0
 24 25  1  0
 25 26  2  0
 26 27  1  0
 27 28  2  0
 28 29  1  0
 29 30  2  0
 30 31  1  0
 31 32  2  0
 18 33  1  0
 33  5  1  0
 17 10  1  0
 32 23  1  0
 31 26  1  0
M  END
>  <shape_align_shape_tanimoto>  (2) 
0.53345682052365473

>  <shape_align_color_tanimoto>  (2) 
0.10601511332603369

>  <metric>  (2) 
color

>  <metric_score>  (2) 
0.106

>  <template_pid>  (2) 
3P78

>  <template_shape_score>  (2) 
0.533

>  <template_color_score>  (2) 
0.106

>  <template_combo_score>  (2) 
0.320

$$$$
3P78_combo_pose
     RDKit          3D

 33 36  0  0  0  0  0  0  0  0999 V2000
    7.9985    3.1948   28.8435 C   0  0  0  0  0  0  0  0  0  0  0  0
    9.4945    3.3761   28.9900 C   0  0  0  0  0  0  0  0  0  0  0  0
    9.7231    4.4228   30.0604 C   0  0  0  0  0  0  0  0  0  0  0  0
   10.1358    3.7788   27.7039 C   0  0  0  0  0  0  0  0  0  0  0  0
   10.0690    2.1241   29.4925 C   0  0  0  0  0  0  0  0  0  0  0  0
   10.2745    1.7072   30.7629 C   0  0  0  0  0  0  0  0  0  0  0  0
   10.8234    0.5072   31.0211 C   0  0  0  0  0  0  0  0  0  0  0  0
   11.1138   -0.1386   32.2896 C   0  0  0  0  0  0  0  0  0  0  0  0
   11.5275   -1.3608   32.2351 O   0  0  0  0  0  0  0  0  0  0  0  0
   11.0211    0.3474   33.5967 N   0  0  0  0  0  0  0  0  0  0  0  0
   11.3870   -0.6321   34.6436 C   0  0  0  0  0  0  0  0  0  0  0  0
   10.4531   -0.4841   35.8069 C   0  0  0  0  0  0  0  0  0  0  0  0
    8.8543    0.1332   35.2734 S   0  0  0  0  0  0  0  0  0  0  0  0
    8.0221    0.5480   36.4235 O   0  0  0  0  0  0  0  0  0  0  0  0
    8.1978   -0.9279   34.4489 O   0  0  0  0  0  0  0  0  0  0  0  0
    9.1210    1.5955   34.2508 C   0  0  0  0  0  0  0  0  0  0  0  0
   10.6467    1.6418   34.0738 C   0  0  0  0  0  0  0  0  0  0  0  0
   11.1399   -0.2237   29.8184 C   0  0  0  0  0  0  0  0  0  0  0  0
   11.7159   -1.4897   29.6727 N   0  0  0  0  0  0  0  0  0  0  0  0
   13.1355   -1.6367   29.5810 C   0  0  0  0  0  0  0  0  0  0  0  0
   13.8176   -0.6129   29.6358 O   0  0  0  0  0  0  0  0  0  0  0  0
   13.7024   -2.9038   29.4354 N   0  0  0  0  0  0  0  0  0  0  0  0
   15.0747   -3.2204   29.3312 C   0  0  0  0  0  0  0  0  0  0  0  0
   16.1041   -2.3137   29.3579 C   0  0  0  0  0  0  0  0  0  0  0  0
   17.4461   -2.6984   29.2487 C   0  0  0  0  0  0  0  0  0  0  0  0
   17.7879   -4.0213   29.1085 C   0  0  0  0  0  0  0  0  0  0  0  0
   19.1160   -4.3751   29.0029 C   0  0  0  0  0  0  0  0  0  0  0  0
   19.4140   -5.7125   28.8637 C   0  0  0  0  0  0  0  0  0  0  0  0
   18.3859   -6.6338   28.8356 C   0  0  0  0  0  0  0  0  0  0  0  0
   17.0549   -6.2759   28.9417 C   0  0  0  0  0  0  0  0  0  0  0  0
   16.7580   -4.9370   29.0810 C   0  0  0  0  0  0  0  0  0  0  0  0
   15.4441   -4.5553   29.1883 C   0  0  0  0  0  0  0  0  0  0  0  0
   10.6806    0.7500   28.4986 S   0  0  0  0  0  0  0  0  0  0  0  0
  1  2  1  0
  2  3  1  0
  2  4  1  0
  2  5  1  0
  5  6  2  0
  6  7  1  0
  7  8  1  0
  8  9  2  0
  8 10  1  0
 10 11  1  0
 11 12  1  0
 12 13  1  0
 13 14  2  0
 13 15  2  0
 13 16  1  0
 16 17  1  0
  7 18  2  0
 18 19  1  0
 19 20  1  0
 20 21  2  0
 20 22  1  0
 22 23  1  0
 23 24  2  0
 24 25  1  0
 25 26  2  0
 26 27  1  0
 27 28  2  0
 28 29  1  0
 29 30  2  0
 30 31  1  0
 31 32  2  0
 18 33  1  0
 33  5  1  0
 17 10  1  0
 32 23  1  0
 31 26  1  0
M  END
>  <shape_align_shape_tanimoto>  (3) 
0.71712503872800182

>  <shape_align_color_tanimoto>  (3) 
0.046460704776429433

>  <metric>  (3) 
combo

>  <metric_score>  (3) 
0.382

>  <template_pid>  (3) 
3P78

>  <template_shape_score>  (3) 
0.717

>  <template_color_score>  (3) 
0.046

>  <template_combo_score>  (3) 
0.382

$$$$
