4F4P_shape_pose
     RDKit          3D

 29 32  0  0  0  0  0  0  0  0999 V2000
   -9.4900   -6.7284  -37.6059 F   0  0  0  0  0  0  0  0  0  0  0  0
   -9.7326   -8.0491  -37.8614 C   0  0  0  0  0  0  0  0  0  0  0  0
   -8.7590   -8.5357  -38.7477 F   0  0  0  0  0  0  0  0  0  0  0  0
  -10.9547   -8.2216  -38.4913 F   0  0  0  0  0  0  0  0  0  0  0  0
   -9.6722   -8.8951  -36.6414 C   0  0  0  0  0  0  0  0  0  0  0  0
   -9.9105   -8.4166  -35.3723 C   0  0  0  0  0  0  0  0  0  0  0  0
   -9.8220   -9.2903  -34.2928 C   0  0  0  0  0  0  0  0  0  0  0  0
   -9.5057  -10.5939  -34.4927 N   0  0  0  0  0  0  0  0  0  0  0  0
   -9.2652  -11.1019  -35.7111 C   0  0  0  0  0  0  0  0  0  0  0  0
   -8.9227  -12.4552  -35.9638 N   0  0  0  0  0  0  0  0  0  0  0  0
   -7.6615  -12.8122  -36.5325 C   0  0  0  0  0  0  0  0  0  0  0  0
   -6.7686  -11.8303  -36.8596 C   0  0  0  0  0  0  0  0  0  0  0  0
   -5.5719  -12.2150  -37.4181 C   0  0  0  0  0  0  0  0  0  0  0  0
   -5.3115  -13.5414  -37.6277 C   0  0  0  0  0  0  0  0  0  0  0  0
   -6.2166  -14.5198  -37.2948 C   0  0  0  0  0  0  0  0  0  0  0  0
   -5.9791  -15.9466  -37.4926 C   0  0  0  0  0  0  0  0  0  0  0  0
   -4.8157  -16.4345  -38.0485 C   0  0  0  0  0  0  0  0  0  0  0  0
   -4.6294  -17.7872  -38.2071 C   0  0  0  0  0  0  0  0  0  0  0  0
   -5.6351  -18.6684  -37.7972 C   0  0  0  0  0  0  0  0  0  0  0  0
   -6.8162  -18.2188  -37.2355 C   0  0  0  0  0  0  0  0  0  0  0  0
   -7.8342  -19.1173  -36.8071 N   0  0  0  0  0  0  0  0  0  0  0  0
   -9.1977  -18.6784  -36.5063 C   0  0  0  0  0  0  0  0  0  0  0  0
   -9.6316  -19.5402  -35.3117 C   0  0  0  0  0  0  0  0  0  0  0  0
   -8.4366  -19.7835  -34.5116 N   0  0  0  0  0  0  0  0  0  0  0  0
   -7.6035  -20.8101  -35.1378 C   0  0  0  0  0  0  0  0  0  0  0  0
   -7.6004  -20.5471  -36.6212 C   0  0  0  0  0  0  0  0  0  0  0  0
   -6.9547  -16.8535  -37.0985 C   0  0  0  0  0  0  0  0  0  0  0  0
   -7.3951  -14.1219  -36.7432 N   0  0  0  0  0  0  0  0  0  0  0  0
   -9.3589  -10.2088  -36.7872 C   0  0  0  0  0  0  0  0  0  0  0  0
  1  2  1  0
  2  3  1  0
  2  4  1  0
  2  5  1  0
  5  6  2  0
  6  7  1  0
  7  8  2  0
  8  9  1  0
  9 10  1  0
 10 11  1  0
 11 12  2  0
 12 13  1  0
 13 14  2  0
 14 15  1  0
 15 16  1  0
 16 17  2  0
 17 18  1  0
 18 19  2  0
 19 20  1  0
 20 21  1  0
 21 22  1  0
 22 23  1  0
 23 24  1  0
 24 25  1  0
 25 26  1  0
 20 27  2  0
 15 28  2  0
  9 29  2  0
 29  5  1  0
 28 11  1  0
 27 16  1  0
 26 21  1  0
M  CHG  1  24   1
M  END
>  <shape_align_shape_tanimoto>  (1) 
0.84498155031798572

>  <shape_align_color_tanimoto>  (1) 
0.049149775519362754

>  <metric>  (1) 
shape

>  <metric_score>  (1) 
0.845

>  <template_pid>  (1) 
4F4P

>  <template_shape_score>  (1) 
0.845

>  <template_color_score>  (1) 
0.049

>  <template_combo_score>  (1) 
0.447

$$$$
4F4P_color_pose
     RDKit          3D

 29 32  0  0  0  0  0  0  0  0999 V2000
   -8.6242  -16.6013  -34.1492 F   0  0  0  0  0  0  0  0  0  0  0  0
   -8.3169  -17.9417  -34.2444 C   0  0  0  0  0  0  0  0  0  0  0  0
   -7.3687  -18.2798  -33.2804 F   0  0  0  0  0  0  0  0  0  0  0  0
   -9.4570  -18.6490  -33.9496 F   0  0  0  0  0  0  0  0  0  0  0  0
   -7.8049  -18.3288  -35.5845 C   0  0  0  0  0  0  0  0  0  0  0  0
   -8.3784  -19.3241  -36.3491 C   0  0  0  0  0  0  0  0  0  0  0  0
   -7.8544  -19.6533  -37.6044 C   0  0  0  0  0  0  0  0  0  0  0  0
   -6.7639  -18.9811  -38.0762 N   0  0  0  0  0  0  0  0  0  0  0  0
   -6.1937  -18.0074  -37.3411 C   0  0  0  0  0  0  0  0  0  0  0  0
   -5.0562  -17.2687  -37.7719 N   0  0  0  0  0  0  0  0  0  0  0  0
   -5.1230  -15.8275  -37.7588 C   0  0  0  0  0  0  0  0  0  0  0  0
   -4.0251  -15.0693  -38.1707 C   0  0  0  0  0  0  0  0  0  0  0  0
   -4.1872  -13.6857  -38.1240 C   0  0  0  0  0  0  0  0  0  0  0  0
   -5.3824  -13.1179  -37.6891 C   0  0  0  0  0  0  0  0  0  0  0  0
   -6.4400  -13.9078  -37.2918 C   0  0  0  0  0  0  0  0  0  0  0  0
   -7.7142  -13.3699  -36.8308 C   0  0  0  0  0  0  0  0  0  0  0  0
   -8.6923  -14.2757  -36.4665 C   0  0  0  0  0  0  0  0  0  0  0  0
   -9.9349  -13.8169  -36.0159 C   0  0  0  0  0  0  0  0  0  0  0  0
  -10.1553  -12.4411  -35.9460 C   0  0  0  0  0  0  0  0  0  0  0  0
   -9.1958  -11.5181  -36.3035 C   0  0  0  0  0  0  0  0  0  0  0  0
   -9.4418  -10.1032  -36.2143 N   0  0  0  0  0  0  0  0  0  0  0  0
  -10.6911   -9.6730  -35.5796 C   0  0  0  0  0  0  0  0  0  0  0  0
  -10.2990   -8.3280  -34.9313 C   0  0  0  0  0  0  0  0  0  0  0  0
   -9.9548   -7.4246  -36.0007 N   0  0  0  0  0  0  0  0  0  0  0  0
   -8.9713   -7.8313  -36.9188 C   0  0  0  0  0  0  0  0  0  0  0  0
   -8.4731   -9.2114  -36.7323 C   0  0  0  0  0  0  0  0  0  0  0  0
   -7.9894  -12.0270  -36.7401 C   0  0  0  0  0  0  0  0  0  0  0  0
   -6.2703  -15.2354  -37.3415 N   0  0  0  0  0  0  0  0  0  0  0  0
   -6.7081  -17.6801  -36.1027 C   0  0  0  0  0  0  0  0  0  0  0  0
  1  2  1  0
  2  3  1  0
  2  4  1  0
  2  5  1  0
  5  6  2  0
  6  7  1  0
  7  8  2  0
  8  9  1  0
  9 10  1  0
 10 11  1  0
 11 12  2  0
 12 13  1  0
 13 14  2  0
 14 15  1  0
 15 16  1  0
 16 17  2  0
 17 18  1  0
 18 19  2  0
 19 20  1  0
 20 21  1  0
 21 22  1  0
 22 23  1  0
 23 24  1  0
 24 25  1  0
 25 26  1  0
 20 27  2  0
 15 28  2  0
  9 29  2  0
 29  5  1  0
 28 11  1  0
 27 16  1  0
 26 21  1  0
M  CHG  1  24   1
M  END
>  <shape_align_shape_tanimoto>  (2) 
0.56185698156596908

>  <shape_align_color_tanimoto>  (2) 
0.15476637283314401

>  <metric>  (2) 
color

>  <metric_score>  (2) 
0.155

>  <template_pid>  (2) 
4F4P

>  <template_shape_score>  (2) 
0.562

>  <template_color_score>  (2) 
0.155

>  <template_combo_score>  (2) 
0.358

$$$$
4F4P_combo_pose
     RDKit          3D

 29 32  0  0  0  0  0  0  0  0999 V2000
   -9.4900   -6.7284  -37.6059 F   0  0  0  0  0  0  0  0  0  0  0  0
   -9.7326   -8.0491  -37.8614 C   0  0  0  0  0  0  0  0  0  0  0  0
   -8.7590   -8.5357  -38.7477 F   0  0  0  0  0  0  0  0  0  0  0  0
  -10.9547   -8.2216  -38.4913 F   0  0  0  0  0  0  0  0  0  0  0  0
   -9.6722   -8.8951  -36.6414 C   0  0  0  0  0  0  0  0  0  0  0  0
   -9.9105   -8.4166  -35.3723 C   0  0  0  0  0  0  0  0  0  0  0  0
   -9.8220   -9.2903  -34.2928 C   0  0  0  0  0  0  0  0  0  0  0  0
   -9.5057  -10.5939  -34.4927 N   0  0  0  0  0  0  0  0  0  0  0  0
   -9.2652  -11.1019  -35.7111 C   0  0  0  0  0  0  0  0  0  0  0  0
   -8.9227  -12.4552  -35.9638 N   0  0  0  0  0  0  0  0  0  0  0  0
   -7.6615  -12.8122  -36.5325 C   0  0  0  0  0  0  0  0  0  0  0  0
   -6.7686  -11.8303  -36.8596 C   0  0  0  0  0  0  0  0  0  0  0  0
   -5.5719  -12.2150  -37.4181 C   0  0  0  0  0  0  0  0  0  0  0  0
   -5.3115  -13.5414  -37.6277 C   0  0  0  0  0  0  0  0  0  0  0  0
   -6.2166  -14.5198  -37.2948 C   0  0  0  0  0  0  0  0  0  0  0  0
   -5.9791  -15.9466  -37.4926 C   0  0  0  0  0  0  0  0  0  0  0  0
   -4.8157  -16.4345  -38.0485 C   0  0  0  0  0  0  0  0  0  0  0  0
   -4.6294  -17.7872  -38.2071 C   0  0  0  0  0  0  0  0  0  0  0  0
   -5.6351  -18.6684  -37.7972 C   0  0  0  0  0  0  0  0  0  0  0  0
   -6.8162  -18.2188  -37.2355 C   0  0  0  0  0  0  0  0  0  0  0  0
   -7.8342  -19.1173  -36.8071 N   0  0  0  0  0  0  0  0  0  0  0  0
   -9.1977  -18.6784  -36.5063 C   0  0  0  0  0  0  0  0  0  0  0  0
   -9.6316  -19.5402  -35.3117 C   0  0  0  0  0  0  0  0  0  0  0  0
   -8.4366  -19.7835  -34.5116 N   0  0  0  0  0  0  0  0  0  0  0  0
   -7.6035  -20.8101  -35.1378 C   0  0  0  0  0  0  0  0  0  0  0  0
   -7.6004  -20.5471  -36.6212 C   0  0  0  0  0  0  0  0  0  0  0  0
   -6.9547  -16.8535  -37.0985 C   0  0  0  0  0  0  0  0  0  0  0  0
   -7.3951  -14.1219  -36.7432 N   0  0  0  0  0  0  0  0  0  0  0  0
   -9.3589  -10.2088  -36.7872 C   0  0  0  0  0  0  0  0  0  0  0  0
  1  2  1  0
  2  3  1  0
  2  4  1  0
  2  5  1  0
  5  6  2  0
  6  7  1  0
  7  8  2  0
  8  9  1  0
  9 10  1  0
 10 11  1  0
 11 12  2  0
 12 13  1  0
 13 14  2  0
 14 15  1  0
 15 16  1  0
 16 17  2  0
 17 18  1  0
 18 19  2  0
 19 20  1  0
 20 21  1  0
 21 22  1  0
 22 23  1  0
 23 24  1  0
 24 25  1  0
 25 26  1  0
 20 27  2  0
 15 28  2  0
  9 29  2  0
 29  5  1  0
 28 11  1  0
 27 16  1  0
 26 21  1  0
M  CHG  1  24   1
M  END
>  <shape_align_shape_tanimoto>  (3) 
0.84498155031798572

>  <shape_align_color_tanimoto>  (3) 
0.049149775519362754

>  <metric>  (3) 
combo

>  <metric_score>  (3) 
0.447

>  <template_pid>  (3) 
4F4P

>  <template_shape_score>  (3) 
0.845

>  <template_color_score>  (3) 
0.049

>  <template_combo_score>  (3) 
0.447

$$$$
