2WXN_shape_pose
     RDKit          3D

 22 24  0  0  0  0  0  0  0  0999 V2000
    2.1254   71.4180   82.0521 C   0  0  0  0  0  0  0  0  0  0  0  0
    1.0660   71.5120   80.9735 C   0  0  0  0  0  0  0  0  0  0  0  0
   -0.2037   70.9690   81.5498 C   0  0  0  0  0  0  0  0  0  0  0  0
    0.9128   72.8961   80.5144 N   0  0  0  0  0  0  0  0  0  0  0  0
    1.6339   73.9535   80.8589 N   0  0  0  0  0  0  0  0  0  0  0  0
    1.1720   75.0567   80.2112 C   0  0  0  0  0  0  0  0  0  0  0  0
    1.6926   76.3999   80.3208 C   0  0  0  0  0  0  0  0  0  0  0  0
    2.1277   77.5305   80.4319 C   0  0  0  0  0  0  0  0  0  0  0  0
    2.6376   78.8679   80.5875 C   0  0  0  0  0  0  0  0  0  0  0  0
    3.8545   79.1581   79.9930 C   0  0  0  0  0  0  0  0  0  0  0  0
    4.3600   80.4297   80.1293 C   0  0  0  0  0  0  0  0  0  0  0  0
    3.6511   81.3766   80.8473 C   0  0  0  0  0  0  0  0  0  0  0  0
    2.4382   81.0972   81.4431 C   0  0  0  0  0  0  0  0  0  0  0  0
    1.7780   82.0925   82.1496 O   0  0  0  0  0  0  0  0  0  0  0  0
    1.9336   79.8173   81.3036 C   0  0  0  0  0  0  0  0  0  0  0  0
    0.1094   74.6102   79.4370 C   0  0  0  0  0  0  0  0  0  0  0  0
   -0.7299   75.2976   78.5760 C   0  0  0  0  0  0  0  0  0  0  0  0
   -0.5745   76.7006   78.3684 N   0  0  0  0  0  0  0  0  0  0  0  0
   -1.6980   74.6110   77.9377 N   0  0  0  0  0  0  0  0  0  0  0  0
   -1.8509   73.2858   78.1287 C   0  0  0  0  0  0  0  0  0  0  0  0
   -1.0303   72.6063   78.9723 N   0  0  0  0  0  0  0  0  0  0  0  0
   -0.0469   73.2389   79.6362 C   0  0  0  0  0  0  0  0  0  0  0  0
  1  2  1  0
  2  3  1  0
  2  4  1  0
  4  5  1  0
  5  6  2  0
  6  7  1  0
  7  8  3  0
  8  9  1  0
  9 10  2  0
 10 11  1  0
 11 12  2  0
 12 13  1  0
 13 14  1  0
 13 15  2  0
  6 16  1  0
 16 17  2  0
 17 18  1  0
 17 19  1  0
 19 20  2  0
 20 21  1  0
 21 22  2  0
 22  4  1  0
 15  9  1  0
 22 16  1  0
M  END
>  <shape_align_shape_tanimoto>  (1) 
0.66785478533801657

>  <shape_align_color_tanimoto>  (1) 
0.083563814467305278

>  <metric>  (1) 
shape

>  <metric_score>  (1) 
0.668

>  <template_pid>  (1) 
2WXN

>  <template_shape_score>  (1) 
0.668

>  <template_color_score>  (1) 
0.084

>  <template_combo_score>  (1) 
0.376

$$$$
2WXN_color_pose
     RDKit          3D

 22 24  0  0  0  0  0  0  0  0999 V2000
   -3.0594   74.0766   77.5381 C   0  0  0  0  0  0  0  0  0  0  0  0
   -2.0669   72.9846   77.9272 C   0  0  0  0  0  0  0  0  0  0  0  0
   -1.4997   72.4592   76.6022 C   0  0  0  0  0  0  0  0  0  0  0  0
   -1.0010   73.5801   78.7144 N   0  0  0  0  0  0  0  0  0  0  0  0
   -0.5915   74.8500   78.6195 N   0  0  0  0  0  0  0  0  0  0  0  0
    0.4163   75.0550   79.5004 C   0  0  0  0  0  0  0  0  0  0  0  0
    1.0797   76.3237   79.6477 C   0  0  0  0  0  0  0  0  0  0  0  0
    1.6230   77.3968   79.7576 C   0  0  0  0  0  0  0  0  0  0  0  0
    2.2646   78.6796   79.8645 C   0  0  0  0  0  0  0  0  0  0  0  0
    2.0327   79.5861   78.8325 C   0  0  0  0  0  0  0  0  0  0  0  0
    2.5968   80.8503   78.8277 C   0  0  0  0  0  0  0  0  0  0  0  0
    3.4073   81.1983   79.8854 C   0  0  0  0  0  0  0  0  0  0  0  0
    3.6293   80.2919   80.9014 C   0  0  0  0  0  0  0  0  0  0  0  0
    4.4548   80.6596   81.9691 O   0  0  0  0  0  0  0  0  0  0  0  0
    3.0766   79.0294   80.9234 C   0  0  0  0  0  0  0  0  0  0  0  0
    0.6521   73.8754   80.1751 C   0  0  0  0  0  0  0  0  0  0  0  0
    1.5599   73.5546   81.1615 C   0  0  0  0  0  0  0  0  0  0  0  0
    2.4703   74.5159   81.6612 N   0  0  0  0  0  0  0  0  0  0  0  0
    1.5323   72.2871   81.6191 N   0  0  0  0  0  0  0  0  0  0  0  0
    0.6557   71.3727   81.1337 C   0  0  0  0  0  0  0  0  0  0  0  0
   -0.2222   71.7230   80.1644 N   0  0  0  0  0  0  0  0  0  0  0  0
   -0.2551   72.9728   79.6561 C   0  0  0  0  0  0  0  0  0  0  0  0
  1  2  1  0
  2  3  1  0
  2  4  1  0
  4  5  1  0
  5  6  2  0
  6  7  1  0
  7  8  3  0
  8  9  1  0
  9 10  2  0
 10 11  1  0
 11 12  2  0
 12 13  1  0
 13 14  1  0
 13 15  2  0
  6 16  1  0
 16 17  2  0
 17 18  1  0
 17 19  1  0
 19 20  2  0
 20 21  1  0
 21 22  2  0
 22  4  1  0
 15  9  1  0
 22 16  1  0
M  END
>  <shape_align_shape_tanimoto>  (2) 
0.56339932561448691

>  <shape_align_color_tanimoto>  (2) 
0.14851419722315182

>  <metric>  (2) 
color

>  <metric_score>  (2) 
0.149

>  <template_pid>  (2) 
2WXN

>  <template_shape_score>  (2) 
0.563

>  <template_color_score>  (2) 
0.149

>  <template_combo_score>  (2) 
0.356

$$$$
2WXN_combo_pose
     RDKit          3D

 22 24  0  0  0  0  0  0  0  0999 V2000
    2.3080   71.6377   82.1326 C   0  0  0  0  0  0  0  0  0  0  0  0
    0.8534   71.7642   81.6645 C   0  0  0  0  0  0  0  0  0  0  0  0
    0.5001   70.5072   80.9411 C   0  0  0  0  0  0  0  0  0  0  0  0
    0.6817   72.9555   80.8549 N   0  0  0  0  0  0  0  0  0  0  0  0
    1.3811   74.0751   81.0001 N   0  0  0  0  0  0  0  0  0  0  0  0
    0.9595   74.9850   80.0759 C   0  0  0  0  0  0  0  0  0  0  0  0
    1.5094   76.3094   79.9556 C   0  0  0  0  0  0  0  0  0  0  0  0
    1.9890   77.4155   79.8639 C   0  0  0  0  0  0  0  0  0  0  0  0
    2.5742   78.7330   79.7760 C   0  0  0  0  0  0  0  0  0  0  0  0
    2.8491   79.3446   78.5699 C   0  0  0  0  0  0  0  0  0  0  0  0
    3.4128   80.6143   78.5912 C   0  0  0  0  0  0  0  0  0  0  0  0
    3.6831   81.2308   79.7997 C   0  0  0  0  0  0  0  0  0  0  0  0
    3.4034   80.6085   81.0200 C   0  0  0  0  0  0  0  0  0  0  0  0
    3.6865   81.2538   82.2211 O   0  0  0  0  0  0  0  0  0  0  0  0
    2.8437   79.3478   80.9986 C   0  0  0  0  0  0  0  0  0  0  0  0
   -0.0442   74.4048   79.3257 C   0  0  0  0  0  0  0  0  0  0  0  0
   -0.7957   74.8695   78.2894 C   0  0  0  0  0  0  0  0  0  0  0  0
   -0.5797   76.2107   77.8087 N   0  0  0  0  0  0  0  0  0  0  0  0
   -1.7149   74.0605   77.7489 N   0  0  0  0  0  0  0  0  0  0  0  0
   -1.8794   72.8186   78.2312 C   0  0  0  0  0  0  0  0  0  0  0  0
   -1.1258   72.3533   79.2702 N   0  0  0  0  0  0  0  0  0  0  0  0
   -0.1887   73.1324   79.8452 C   0  0  0  0  0  0  0  0  0  0  0  0
  1  2  1  0
  2  3  1  0
  2  4  1  0
  4  5  1  0
  5  6  2  0
  6  7  1  0
  7  8  3  0
  8  9  1  0
  9 10  2  0
 10 11  1  0
 11 12  2  0
 12 13  1  0
 13 14  1  0
 13 15  2  0
  6 16  1  0
 16 17  2  0
 17 18  1  0
 17 19  1  0
 19 20  2  0
 20 21  1  0
 21 22  2  0
 22  4  1  0
 15  9  1  0
 22 16  1  0
M  END
>  <shape_align_shape_tanimoto>  (3) 
0.63678588815145276

>  <shape_align_color_tanimoto>  (3) 
0.1177845262698288

>  <metric>  (3) 
combo

>  <metric_score>  (3) 
0.377

>  <template_pid>  (3) 
2WXN

>  <template_shape_score>  (3) 
0.637

>  <template_color_score>  (3) 
0.118

>  <template_combo_score>  (3) 
0.377

$$$$
