3QO2_shape_pose
     RDKit          3D

106105  0  0  0  0  0  0  0  0999 V2000
   -5.3422    6.7581   13.7492 C   0  0  0  0  0  0  0  0  0  0  0  0
   -6.3998    6.9999   12.7173 C   0  0  2  0  0  0  0  0  0  0  0  0
   -5.9773    8.1310   11.8779 N   0  0  0  0  0  0  0  0  0  0  0  0
   -7.7329    7.3368   13.3031 C   0  0  0  0  0  0  0  0  0  0  0  0
   -8.2746    8.3848   12.9075 O   0  0  0  0  0  0  0  0  0  0  0  0
   -8.3425    6.4530   14.2876 N   0  0  0  0  0  0  0  0  0  0  0  0
   -9.6403    6.8942   14.7680 C   0  0  1  0  0  0  0  0  0  0  0  0
  -10.7280    5.8751   14.6098 C   0  0  0  0  0  0  0  0  0  0  0  0
   -9.5617    7.4457   16.1636 C   0  0  0  0  0  0  0  0  0  0  0  0
  -10.5778    8.0229   16.6655 O   0  0  0  0  0  0  0  0  0  0  0  0
   -8.3469    7.3325   16.9374 N   0  0  0  0  0  0  0  0  0  0  0  0
   -8.4233    7.9505   18.2657 C   0  0  2  0  0  0  0  0  0  0  0  0
   -7.1646    8.7568   18.5051 C   0  0  0  0  0  0  0  0  0  0  0  0
   -6.1751    8.4127   17.8451 O   0  0  0  0  0  0  0  0  0  0  0  0
   -7.2273    9.8101   19.4403 N   0  0  0  0  0  0  0  0  0  0  0  0
   -6.1694   10.6830   19.8508 C   0  0  1  0  0  0  0  0  0  0  0  0
   -5.1399   10.7421   18.6328 C   0  0  0  0  0  0  0  0  0  0  0  0
   -4.0329   11.6924   18.9199 C   0  0  0  0  0  0  0  0  0  0  0  0
   -3.0414   11.7705   17.7520 C   0  0  0  0  0  0  0  0  0  0  0  0
   -1.9745   12.7646   18.1175 C   0  0  0  0  0  0  0  0  0  0  0  0
   -1.2179   12.4203   19.2743 N   0  0  0  0  0  0  0  0  0  0  0  0
   -6.5080   12.0809   20.1318 C   0  0  0  0  0  0  0  0  0  0  0  0
   -7.5084   12.5842   19.5628 O   0  0  0  0  0  0  0  0  0  0  0  0
   -5.6689   12.8066   21.0422 N   0  0  0  0  0  0  0  0  0  0  0  0
   -5.8076   14.1777   21.3596 C   0  0  1  0  0  0  0  0  0  0  0  0
   -6.7675   14.3415   22.5509 C   0  0  0  0  0  0  0  0  0  0  0  0
   -8.1404   13.8238   22.3304 C   0  0  0  0  0  0  0  0  0  0  0  0
   -9.0399   14.1068   23.5076 C   0  0  0  0  0  0  0  0  0  0  0  0
  -10.3700   13.6135   23.3771 N   0  0  0  0  0  0  0  0  0  0  0  0
   -8.6235   14.7221   24.5026 O   0  0  0  0  0  0  0  0  0  0  0  0
   -4.5087   14.7636   21.8626 C   0  0  0  0  0  0  0  0  0  0  0  0
   -4.2174   15.9552   21.5755 O   0  0  0  0  0  0  0  0  0  0  0  0
   -3.6864   13.9160   22.6430 N   0  0  0  0  0  0  0  0  0  0  0  0
   -2.3615   14.3269   23.1566 C   0  0  2  0  0  0  0  0  0  0  0  0
   -1.5383   13.1225   23.2494 C   0  0  0  0  0  0  0  0  0  0  0  0
   -2.2039   12.0051   23.2393 O   0  0  0  0  0  0  0  0  0  0  0  0
   -0.1577   13.0058   23.3413 N   0  0  0  0  0  0  0  0  0  0  0  0
    0.4406   11.6830   23.4294 C   0  0  1  0  0  0  0  0  0  0  0  0
    0.3697   11.0281   22.0121 C   0  0  0  0  0  0  0  0  0  0  0  0
    1.8391   11.7621   23.8071 C   0  0  0  0  0  0  0  0  0  0  0  0
    2.3312   12.9249   24.0243 O   0  0  0  0  0  0  0  0  0  0  0  0
    2.6942   10.5871   23.9383 N   0  0  0  0  0  0  0  0  0  0  0  0
    4.0368   10.8272   24.2700 C   0  0  1  0  0  0  0  0  0  0  0  0
    4.8061    9.9703   25.1687 C   0  0  0  0  0  0  0  0  0  0  0  0
    5.0536    8.5552   24.8766 C   0  0  0  0  0  0  0  0  0  0  0  0
    3.9490    7.5710   24.8310 C   0  0  0  0  0  0  0  0  0  0  0  0
    3.2817    7.4229   26.1154 N   0  0  0  0  0  0  0  0  0  0  0  0
    2.2099    6.5328   26.3711 C   0  0  0  0  0  0  0  0  0  0  0  0
    1.6765    6.5117   27.6919 N   0  0  0  0  0  0  0  0  0  0  0  0
    1.7812    5.8012   25.4116 N   0  0  0  0  0  0  0  0  0  0  0  0
    4.8642   10.8721   22.9652 C   0  0  0  0  0  0  0  0  0  0  0  0
    6.0663   11.1579   23.1764 O   0  0  0  0  0  0  0  0  0  0  0  0
    4.2280   10.6092   21.7621 N   0  0  0  0  0  0  0  0  0  0  0  0
    4.7061   10.6083   20.4205 C   0  0  1  0  0  0  0  0  0  0  0  0
    6.0054   11.3691   20.2597 C   0  0  0  0  0  0  0  0  0  0  0  0
    5.7254   12.8271   20.5839 C   0  0  0  0  0  0  0  0  0  0  0  0
    6.9033   13.7369   20.4718 C   0  0  0  0  0  0  0  0  0  0  0  0
    6.4498   15.1561   20.8003 C   0  0  0  0  0  0  0  0  0  0  0  0
    7.5301   16.0951   20.6961 N   0  0  0  0  0  0  0  0  0  0  0  0
    8.5701   15.5903   19.8047 C   0  0  0  0  0  0  0  0  0  0  0  0
    7.0388   17.3422   20.1588 C   0  0  0  0  0  0  0  0  0  0  0  0
    8.1632   16.3396   21.9643 C   0  0  0  0  0  0  0  0  0  0  0  0
    4.6146    9.3406   19.6895 C   0  0  0  0  0  0  0  0  0  0  0  0
    4.1368    8.3514   20.2738 O   0  0  0  0  0  0  0  0  0  0  0  0
    5.0521    9.2618   18.3719 N   0  0  0  0  0  0  0  0  0  0  0  0
    5.0737    8.2329   17.4074 C   0  0  1  0  0  0  0  0  0  0  0  0
    6.0325    8.5098   16.2676 C   0  0  0  0  0  0  0  0  0  0  0  0
    7.3312    8.6642   16.7225 O   0  0  0  0  0  0  0  0  0  0  0  0
    5.0179    6.8187   17.7502 C   0  0  0  0  0  0  0  0  0  0  0  0
    6.0052    6.0961   17.3187 O   0  0  0  0  0  0  0  0  0  0  0  0
    4.0414    6.1144   18.4728 N   0  0  0  0  0  0  0  0  0  0  0  0
    4.1168    4.6901   18.7398 C   0  0  2  0  0  0  0  0  0  0  0  0
    5.3719    4.2924   19.4220 C   0  0  0  0  0  0  0  0  0  0  0  0
    5.7069    3.0905   19.4714 O   0  0  0  0  0  0  0  0  0  0  0  0
    6.2347    5.2569   20.0480 N   0  0  0  0  0  0  0  0  0  0  0  0
    7.4473    4.7977   20.6784 C   0  0  0  0  0  0  0  0  0  0  0  0
    8.2278    5.8603   21.3474 C   0  0  0  0  0  0  0  0  0  0  0  0
    9.3352    5.4738   21.8770 O   0  0  0  0  0  0  0  0  0  0  0  0
    7.8451    7.2170   21.4440 N   0  0  0  0  0  0  0  0  0  0  0  0
    8.6490    8.1954   22.1211 C   0  0  0  0  0  0  0  0  0  0  0  0
   10.0003    8.3863   21.5604 C   0  0  0  0  0  0  0  0  0  0  0  0
   10.4556    7.7656   20.5610 O   0  0  0  0  0  0  0  0  0  0  0  0
   10.8603    9.3410   22.1998 N   0  0  0  0  0  0  0  0  0  0  0  0
   12.1778    9.6425   21.7816 C   0  0  1  0  0  0  0  0  0  0  0  0
   13.2236    8.6047   21.8928 C   0  0  0  0  0  0  0  0  0  0  0  0
   13.4722    8.0775   23.2703 C   0  0  0  0  0  0  0  0  0  0  0  0
   12.3289    7.3455   23.9068 C   0  0  0  0  0  0  0  0  0  0  0  0
   12.7105    6.8339   25.2934 C   0  0  0  0  0  0  0  0  0  0  0  0
   13.0600    7.9410   26.1701 N   0  0  0  0  0  0  0  0  0  0  0  0
   12.1642   10.2157   20.3610 C   0  0  0  0  0  0  0  0  0  0  0  0
   13.2891   10.2852   19.7949 O   0  0  0  0  0  0  0  0  0  0  0  0
   10.9548   10.6320   19.7614 N   0  0  0  0  0  0  0  0  0  0  0  0
   10.9752   11.1667   18.3953 C   0  0  1  0  0  0  0  0  0  0  0  0
   10.8725   12.6624   18.3705 C   0  0  0  0  0  0  0  0  0  0  0  0
   12.2319   10.7068   17.6902 C   0  0  0  0  0  0  0  0  0  0  0  0
   13.1869   11.5016   17.4539 O   0  0  0  0  0  0  0  0  0  0  0  0
   12.2740    9.3736   17.3206 O   0  0  0  0  0  0  0  0  0  0  0  0
    3.8445    3.8304   17.5515 C   0  0  1  0  0  0  0  0  0  0  0  0
    2.4211    3.9972   17.0426 C   0  0  0  0  0  0  0  0  0  0  0  0
    4.7120    4.0281   16.4805 O   0  0  0  0  0  0  0  0  0  0  0  0
   -2.5614   14.9830   24.5231 C   0  0  1  0  0  0  0  0  0  0  0  0
   -3.1745   14.0596   25.5337 C   0  0  0  0  0  0  0  0  0  0  0  0
   -1.3292   15.3903   25.0522 O   0  0  0  0  0  0  0  0  0  0  0  0
   -8.4389    6.7832   19.2496 C   0  0  1  0  0  0  0  0  0  0  0  0
   -8.4153    7.2207   20.6937 C   0  0  0  0  0  0  0  0  0  0  0  0
   -9.5488    5.9759   19.0485 O   0  0  0  0  0  0  0  0  0  0  0  0
  2  1  1  1
  2  3  1  0
  2  4  1  0
  4  5  2  0
  4  6  1  0
  6  7  1  0
  7  8  1  1
  7  9  1  0
  9 10  2  0
  9 11  1  0
 12 11  1  6
 12 13  1  0
 13 14  2  0
 13 15  1  0
 15 16  1  0
 16 17  1  6
 17 18  1  0
 18 19  1  0
 19 20  1  0
 20 21  1  0
 16 22  1  0
 22 23  2  0
 22 24  1  0
 24 25  1  0
 25 26  1  1
 26 27  1  0
 27 28  1  0
 28 29  1  0
 28 30  2  0
 25 31  1  0
 31 32  2  0
 31 33  1  0
 34 33  1  1
 34 35  1  0
 35 36  2  0
 35 37  1  0
 37 38  1  0
 38 39  1  6
 38 40  1  0
 40 41  2  0
 40 42  1  0
 42 43  1  0
 43 44  1  1
 44 45  1  0
 45 46  1  0
 46 47  1  0
 47 48  1  0
 48 49  1  0
 48 50  2  0
 43 51  1  0
 51 52  2  0
 51 53  1  0
 53 54  1  0
 54 55  1  1
 55 56  1  0
 56 57  1  0
 57 58  1  0
 58 59  1  0
 59 60  1  0
 59 61  1  0
 59 62  1  0
 54 63  1  0
 63 64  2  0
 63 65  1  0
 65 66  1  0
 66 67  1  1
 67 68  1  0
 66 69  1  0
 69 70  2  0
 69 71  1  0
 72 71  1  6
 72 73  1  0
 73 74  2  0
 73 75  1  0
 75 76  1  0
 76 77  1  0
 77 78  2  0
 77 79  1  0
 79 80  1  0
 80 81  1  0
 81 82  2  0
 81 83  1  0
 83 84  1  0
 84 85  1  6
 85 86  1  0
 86 87  1  0
 87 88  1  0
 88 89  1  0
 84 90  1  0
 90 91  2  0
 90 92  1  0
 92 93  1  0
 93 94  1  1
 93 95  1  0
 95 96  2  0
 95 97  1  0
 72 98  1  0
 98 99  1  6
 98100  1  0
 34101  1  0
101102  1  1
101103  1  0
 12104  1  0
104105  1  1
104106  1  0
M  CHG  6   3   1  21   1  50   1  59   1  89   1  97  -1
M  END
>  <shape_align_shape_tanimoto>  (1) 
0.27720097457413206

>  <shape_align_color_tanimoto>  (1) 
0.026174140468862087

>  <metric>  (1) 
shape

>  <metric_score>  (1) 
0.277

>  <template_pid>  (1) 
3QO2

>  <template_shape_score>  (1) 
0.277

>  <template_color_score>  (1) 
0.026

>  <template_combo_score>  (1) 
0.152

$$$$
3QO2_color_pose
     RDKit          3D

106105  0  0  0  0  0  0  0  0999 V2000
   -0.3727    3.2771   22.8861 C   0  0  0  0  0  0  0  0  0  0  0  0
    0.2139    4.6156   23.1871 C   0  0  2  0  0  0  0  0  0  0  0  0
   -0.2017    5.0148   24.5222 N   0  0  0  0  0  0  0  0  0  0  0  0
   -0.2725    5.6400   22.2330 C   0  0  0  0  0  0  0  0  0  0  0  0
   -0.0210    5.4505   21.0127 O   0  0  0  0  0  0  0  0  0  0  0  0
   -0.9925    6.8034   22.6154 N   0  0  0  0  0  0  0  0  0  0  0  0
   -1.4381    7.7757   21.6325 C   0  0  1  0  0  0  0  0  0  0  0  0
   -2.8962    8.0692   21.7055 C   0  0  0  0  0  0  0  0  0  0  0  0
   -0.5758    8.9973   21.8139 C   0  0  0  0  0  0  0  0  0  0  0  0
    0.2740    8.8929   22.7647 O   0  0  0  0  0  0  0  0  0  0  0  0
   -0.6876   10.1520   21.0099 N   0  0  0  0  0  0  0  0  0  0  0  0
    0.2361   11.2453   21.3228 C   0  0  2  0  0  0  0  0  0  0  0  0
   -0.3856   12.5705   21.3767 C   0  0  0  0  0  0  0  0  0  0  0  0
    0.3917   13.5409   21.7044 O   0  0  0  0  0  0  0  0  0  0  0  0
   -1.7390   12.8838   21.1004 N   0  0  0  0  0  0  0  0  0  0  0  0
   -2.2782   14.2256   21.1549 C   0  0  1  0  0  0  0  0  0  0  0  0
   -2.2869   14.9612   19.8632 C   0  0  0  0  0  0  0  0  0  0  0  0
   -3.0443   14.4163   18.7199 C   0  0  0  0  0  0  0  0  0  0  0  0
   -2.8239   15.3943   17.5512 C   0  0  0  0  0  0  0  0  0  0  0  0
   -1.3937   15.5308   17.1550 C   0  0  0  0  0  0  0  0  0  0  0  0
   -1.2940   16.4927   16.0337 N   0  0  0  0  0  0  0  0  0  0  0  0
   -3.3888   14.4575   22.0669 C   0  0  0  0  0  0  0  0  0  0  0  0
   -3.9958   15.5852   21.9530 O   0  0  0  0  0  0  0  0  0  0  0  0
   -3.8196   13.5165   23.0647 N   0  0  0  0  0  0  0  0  0  0  0  0
   -4.9261   13.8698   23.9256 C   0  0  1  0  0  0  0  0  0  0  0  0
   -5.9605   12.8358   24.0360 C   0  0  0  0  0  0  0  0  0  0  0  0
   -6.6670   12.4574   22.7944 C   0  0  0  0  0  0  0  0  0  0  0  0
   -5.9325   11.8333   21.7025 C   0  0  0  0  0  0  0  0  0  0  0  0
   -6.5693   11.8948   20.3913 N   0  0  0  0  0  0  0  0  0  0  0  0
   -4.8448   11.2534   21.7195 O   0  0  0  0  0  0  0  0  0  0  0  0
   -4.2504   14.1724   25.2434 C   0  0  0  0  0  0  0  0  0  0  0  0
   -2.9822   14.0827   25.1925 O   0  0  0  0  0  0  0  0  0  0  0  0
   -4.9446   14.5264   26.4387 N   0  0  0  0  0  0  0  0  0  0  0  0
   -4.0784   14.7791   27.5757 C   0  0  2  0  0  0  0  0  0  0  0  0
   -4.1819   13.7354   28.6504 C   0  0  0  0  0  0  0  0  0  0  0  0
   -5.2317   13.0552   28.7860 O   0  0  0  0  0  0  0  0  0  0  0  0
   -3.0255   13.5913   29.4488 N   0  0  0  0  0  0  0  0  0  0  0  0
   -2.7673   12.7070   30.5285 C   0  0  1  0  0  0  0  0  0  0  0  0
   -3.7569   11.4793   30.3997 C   0  0  0  0  0  0  0  0  0  0  0  0
   -1.4367   12.0757   30.3595 C   0  0  0  0  0  0  0  0  0  0  0  0
   -0.9429   11.4537   31.3362 O   0  0  0  0  0  0  0  0  0  0  0  0
   -0.8212   12.2079   29.0995 N   0  0  0  0  0  0  0  0  0  0  0  0
    0.4442   11.6767   28.6526 C   0  0  1  0  0  0  0  0  0  0  0  0
    0.2250   10.6726   27.5315 C   0  0  0  0  0  0  0  0  0  0  0  0
   -0.6475    9.5068   28.0146 C   0  0  0  0  0  0  0  0  0  0  0  0
    0.0274    8.7641   29.1385 C   0  0  0  0  0  0  0  0  0  0  0  0
   -0.7311    7.6353   29.6078 N   0  0  0  0  0  0  0  0  0  0  0  0
   -0.9775    6.4543   28.8812 C   0  0  0  0  0  0  0  0  0  0  0  0
   -1.7622    5.4506   29.5435 N   0  0  0  0  0  0  0  0  0  0  0  0
   -0.5487    6.2217   27.6869 N   0  0  0  0  0  0  0  0  0  0  0  0
    1.3239   12.7650   28.0718 C   0  0  0  0  0  0  0  0  0  0  0  0
    0.9920   13.9775   28.1676 O   0  0  0  0  0  0  0  0  0  0  0  0
    2.5202   12.4102   27.4153 N   0  0  0  0  0  0  0  0  0  0  0  0
    3.4528   13.3124   26.8131 C   0  0  1  0  0  0  0  0  0  0  0  0
    4.8495   12.9042   27.1323 C   0  0  0  0  0  0  0  0  0  0  0  0
    4.9669   12.9503   28.6630 C   0  0  0  0  0  0  0  0  0  0  0  0
    6.3564   12.5195   29.0040 C   0  0  0  0  0  0  0  0  0  0  0  0
    6.6794   12.4980   30.4554 C   0  0  0  0  0  0  0  0  0  0  0  0
    5.8837   11.6412   31.2744 N   0  0  0  0  0  0  0  0  0  0  0  0
    5.5154   10.3854   30.6956 C   0  0  0  0  0  0  0  0  0  0  0  0
    6.6819   11.3684   32.4902 C   0  0  0  0  0  0  0  0  0  0  0  0
    4.6824   12.3233   31.7656 C   0  0  0  0  0  0  0  0  0  0  0  0
    3.1988   13.4565   25.3376 C   0  0  0  0  0  0  0  0  0  0  0  0
    2.1659   12.9042   24.8399 O   0  0  0  0  0  0  0  0  0  0  0  0
    4.0929   14.2001   24.5043 N   0  0  0  0  0  0  0  0  0  0  0  0
    3.8875   14.3930   23.0941 C   0  0  1  0  0  0  0  0  0  0  0  0
    3.9228   15.9055   22.8539 C   0  0  0  0  0  0  0  0  0  0  0  0
    5.1842   16.3565   23.2622 O   0  0  0  0  0  0  0  0  0  0  0  0
    4.8782   13.7905   22.1973 C   0  0  0  0  0  0  0  0  0  0  0  0
    4.7390   14.0954   20.9506 O   0  0  0  0  0  0  0  0  0  0  0  0
    5.9364   12.9378   22.5329 N   0  0  0  0  0  0  0  0  0  0  0  0
    6.8068   12.4574   21.5147 C   0  0  2  0  0  0  0  0  0  0  0  0
    6.3475   11.0877   21.0692 C   0  0  0  0  0  0  0  0  0  0  0  0
    6.9776   10.5729   20.1185 O   0  0  0  0  0  0  0  0  0  0  0  0
    5.2658   10.4234   21.6883 N   0  0  0  0  0  0  0  0  0  0  0  0
    4.7551    9.1358   21.3213 C   0  0  0  0  0  0  0  0  0  0  0  0
    5.6428    8.0067   21.4062 C   0  0  0  0  0  0  0  0  0  0  0  0
    5.1295    6.8613   21.0590 O   0  0  0  0  0  0  0  0  0  0  0  0
    6.9897    7.9324   21.8066 N   0  0  0  0  0  0  0  0  0  0  0  0
    7.5927    6.6197   21.7728 C   0  0  0  0  0  0  0  0  0  0  0  0
    8.9922    6.5460   22.1645 C   0  0  0  0  0  0  0  0  0  0  0  0
    9.5278    5.3781   22.1503 O   0  0  0  0  0  0  0  0  0  0  0  0
    9.8383    7.6069   22.5588 N   0  0  0  0  0  0  0  0  0  0  0  0
   11.2235    7.4496   22.9320 C   0  0  1  0  0  0  0  0  0  0  0  0
   11.4738    6.4342   24.0086 C   0  0  0  0  0  0  0  0  0  0  0  0
   10.7892    6.7448   25.2987 C   0  0  0  0  0  0  0  0  0  0  0  0
   11.2331    8.0316   25.9015 C   0  0  0  0  0  0  0  0  0  0  0  0
   10.5618    8.3531   27.2245 C   0  0  0  0  0  0  0  0  0  0  0  0
   11.0942    9.6114   27.6899 N   0  0  0  0  0  0  0  0  0  0  0  0
   12.0585    7.0628   21.7641 C   0  0  0  0  0  0  0  0  0  0  0  0
   13.3009    6.8932   22.0112 O   0  0  0  0  0  0  0  0  0  0  0  0
   11.5430    6.8831   20.4540 N   0  0  0  0  0  0  0  0  0  0  0  0
   12.4817    6.4968   19.4171 C   0  0  1  0  0  0  0  0  0  0  0  0
   12.2303    5.0526   18.9595 C   0  0  0  0  0  0  0  0  0  0  0  0
   12.4646    7.4039   18.2526 C   0  0  0  0  0  0  0  0  0  0  0  0
   11.9235    7.0724   17.1481 O   0  0  0  0  0  0  0  0  0  0  0  0
   13.0586    8.6618   18.3719 O   0  0  0  0  0  0  0  0  0  0  0  0
    8.2527   12.4297   21.7338 C   0  0  1  0  0  0  0  0  0  0  0  0
    8.9633   13.7589   21.6858 C   0  0  0  0  0  0  0  0  0  0  0  0
    8.6532   11.6392   22.8186 O   0  0  0  0  0  0  0  0  0  0  0  0
   -4.3850   16.1546   28.1511 C   0  0  1  0  0  0  0  0  0  0  0  0
   -4.1936   17.2219   27.0937 C   0  0  0  0  0  0  0  0  0  0  0  0
   -5.7206   16.1902   28.5514 O   0  0  0  0  0  0  0  0  0  0  0  0
    1.3832   11.2200   20.3053 C   0  0  1  0  0  0  0  0  0  0  0  0
    0.8779   11.3912   18.9036 C   0  0  0  0  0  0  0  0  0  0  0  0
    2.2725   12.2223   20.5787 O   0  0  0  0  0  0  0  0  0  0  0  0
  2  1  1  6
  2  3  1  0
  2  4  1  0
  4  5  2  0
  4  6  1  0
  6  7  1  0
  7  8  1  1
  7  9  1  0
  9 10  2  0
  9 11  1  0
 12 11  1  6
 12 13  1  0
 13 14  2  0
 13 15  1  0
 15 16  1  0
 16 17  1  6
 17 18  1  0
 18 19  1  0
 19 20  1  0
 20 21  1  0
 16 22  1  0
 22 23  2  0
 22 24  1  0
 24 25  1  0
 25 26  1  1
 26 27  1  0
 27 28  1  0
 28 29  1  0
 28 30  2  0
 25 31  1  0
 31 32  2  0
 31 33  1  0
 34 33  1  6
 34 35  1  0
 35 36  2  0
 35 37  1  0
 37 38  1  0
 38 39  1  6
 38 40  1  0
 40 41  2  0
 40 42  1  0
 42 43  1  0
 43 44  1  6
 44 45  1  0
 45 46  1  0
 46 47  1  0
 47 48  1  0
 48 49  1  0
 48 50  2  0
 43 51  1  0
 51 52  2  0
 51 53  1  0
 53 54  1  0
 54 55  1  6
 55 56  1  0
 56 57  1  0
 57 58  1  0
 58 59  1  0
 59 60  1  0
 59 61  1  0
 59 62  1  0
 54 63  1  0
 63 64  2  0
 63 65  1  0
 65 66  1  0
 66 67  1  1
 67 68  1  0
 66 69  1  0
 69 70  2  0
 69 71  1  0
 72 71  1  1
 72 73  1  0
 73 74  2  0
 73 75  1  0
 75 76  1  0
 76 77  1  0
 77 78  2  0
 77 79  1  0
 79 80  1  0
 80 81  1  0
 81 82  2  0
 81 83  1  0
 83 84  1  0
 84 85  1  1
 85 86  1  0
 86 87  1  0
 87 88  1  0
 88 89  1  0
 84 90  1  0
 90 91  2  0
 90 92  1  0
 92 93  1  0
 93 94  1  6
 93 95  1  0
 95 96  2  0
 95 97  1  0
 72 98  1  0
 98 99  1  1
 98100  1  0
 34101  1  0
101102  1  6
101103  1  0
 12104  1  0
104105  1  6
104106  1  0
M  CHG  6   3   1  21   1  50   1  59   1  89   1  97  -1
M  END
>  <shape_align_shape_tanimoto>  (2) 
0.21855822152626062

>  <shape_align_color_tanimoto>  (2) 
0.044881048323386852

>  <metric>  (2) 
color

>  <metric_score>  (2) 
0.045

>  <template_pid>  (2) 
3QO2

>  <template_shape_score>  (2) 
0.219

>  <template_color_score>  (2) 
0.045

>  <template_combo_score>  (2) 
0.132

$$$$
3QO2_combo_pose
     RDKit          3D

106105  0  0  0  0  0  0  0  0999 V2000
   -5.3422    6.7581   13.7492 C   0  0  0  0  0  0  0  0  0  0  0  0
   -6.3998    6.9999   12.7173 C   0  0  2  0  0  0  0  0  0  0  0  0
   -5.9773    8.1310   11.8779 N   0  0  0  0  0  0  0  0  0  0  0  0
   -7.7329    7.3368   13.3031 C   0  0  0  0  0  0  0  0  0  0  0  0
   -8.2746    8.3848   12.9075 O   0  0  0  0  0  0  0  0  0  0  0  0
   -8.3425    6.4530   14.2876 N   0  0  0  0  0  0  0  0  0  0  0  0
   -9.6403    6.8942   14.7680 C   0  0  1  0  0  0  0  0  0  0  0  0
  -10.7280    5.8751   14.6098 C   0  0  0  0  0  0  0  0  0  0  0  0
   -9.5617    7.4457   16.1636 C   0  0  0  0  0  0  0  0  0  0  0  0
  -10.5778    8.0229   16.6655 O   0  0  0  0  0  0  0  0  0  0  0  0
   -8.3469    7.3325   16.9374 N   0  0  0  0  0  0  0  0  0  0  0  0
   -8.4233    7.9505   18.2657 C   0  0  2  0  0  0  0  0  0  0  0  0
   -7.1646    8.7568   18.5051 C   0  0  0  0  0  0  0  0  0  0  0  0
   -6.1751    8.4127   17.8451 O   0  0  0  0  0  0  0  0  0  0  0  0
   -7.2273    9.8101   19.4403 N   0  0  0  0  0  0  0  0  0  0  0  0
   -6.1694   10.6830   19.8508 C   0  0  1  0  0  0  0  0  0  0  0  0
   -5.1399   10.7421   18.6328 C   0  0  0  0  0  0  0  0  0  0  0  0
   -4.0329   11.6924   18.9199 C   0  0  0  0  0  0  0  0  0  0  0  0
   -3.0414   11.7705   17.7520 C   0  0  0  0  0  0  0  0  0  0  0  0
   -1.9745   12.7646   18.1175 C   0  0  0  0  0  0  0  0  0  0  0  0
   -1.2179   12.4203   19.2743 N   0  0  0  0  0  0  0  0  0  0  0  0
   -6.5080   12.0809   20.1318 C   0  0  0  0  0  0  0  0  0  0  0  0
   -7.5084   12.5842   19.5628 O   0  0  0  0  0  0  0  0  0  0  0  0
   -5.6689   12.8066   21.0422 N   0  0  0  0  0  0  0  0  0  0  0  0
   -5.8076   14.1777   21.3596 C   0  0  1  0  0  0  0  0  0  0  0  0
   -6.7675   14.3415   22.5509 C   0  0  0  0  0  0  0  0  0  0  0  0
   -8.1404   13.8238   22.3304 C   0  0  0  0  0  0  0  0  0  0  0  0
   -9.0399   14.1068   23.5076 C   0  0  0  0  0  0  0  0  0  0  0  0
  -10.3700   13.6135   23.3771 N   0  0  0  0  0  0  0  0  0  0  0  0
   -8.6235   14.7221   24.5026 O   0  0  0  0  0  0  0  0  0  0  0  0
   -4.5087   14.7636   21.8626 C   0  0  0  0  0  0  0  0  0  0  0  0
   -4.2174   15.9552   21.5755 O   0  0  0  0  0  0  0  0  0  0  0  0
   -3.6864   13.9160   22.6430 N   0  0  0  0  0  0  0  0  0  0  0  0
   -2.3615   14.3269   23.1566 C   0  0  2  0  0  0  0  0  0  0  0  0
   -1.5383   13.1225   23.2494 C   0  0  0  0  0  0  0  0  0  0  0  0
   -2.2039   12.0051   23.2393 O   0  0  0  0  0  0  0  0  0  0  0  0
   -0.1577   13.0058   23.3413 N   0  0  0  0  0  0  0  0  0  0  0  0
    0.4406   11.6830   23.4294 C   0  0  1  0  0  0  0  0  0  0  0  0
    0.3697   11.0281   22.0121 C   0  0  0  0  0  0  0  0  0  0  0  0
    1.8391   11.7621   23.8071 C   0  0  0  0  0  0  0  0  0  0  0  0
    2.3312   12.9249   24.0243 O   0  0  0  0  0  0  0  0  0  0  0  0
    2.6942   10.5871   23.9383 N   0  0  0  0  0  0  0  0  0  0  0  0
    4.0368   10.8272   24.2700 C   0  0  1  0  0  0  0  0  0  0  0  0
    4.8061    9.9703   25.1687 C   0  0  0  0  0  0  0  0  0  0  0  0
    5.0536    8.5552   24.8766 C   0  0  0  0  0  0  0  0  0  0  0  0
    3.9490    7.5710   24.8310 C   0  0  0  0  0  0  0  0  0  0  0  0
    3.2817    7.4229   26.1154 N   0  0  0  0  0  0  0  0  0  0  0  0
    2.2099    6.5328   26.3711 C   0  0  0  0  0  0  0  0  0  0  0  0
    1.6765    6.5117   27.6919 N   0  0  0  0  0  0  0  0  0  0  0  0
    1.7812    5.8012   25.4116 N   0  0  0  0  0  0  0  0  0  0  0  0
    4.8642   10.8721   22.9652 C   0  0  0  0  0  0  0  0  0  0  0  0
    6.0663   11.1579   23.1764 O   0  0  0  0  0  0  0  0  0  0  0  0
    4.2280   10.6092   21.7621 N   0  0  0  0  0  0  0  0  0  0  0  0
    4.7061   10.6083   20.4205 C   0  0  1  0  0  0  0  0  0  0  0  0
    6.0054   11.3691   20.2597 C   0  0  0  0  0  0  0  0  0  0  0  0
    5.7254   12.8271   20.5839 C   0  0  0  0  0  0  0  0  0  0  0  0
    6.9033   13.7369   20.4718 C   0  0  0  0  0  0  0  0  0  0  0  0
    6.4498   15.1561   20.8003 C   0  0  0  0  0  0  0  0  0  0  0  0
    7.5301   16.0951   20.6961 N   0  0  0  0  0  0  0  0  0  0  0  0
    8.5701   15.5903   19.8047 C   0  0  0  0  0  0  0  0  0  0  0  0
    7.0388   17.3422   20.1588 C   0  0  0  0  0  0  0  0  0  0  0  0
    8.1632   16.3396   21.9643 C   0  0  0  0  0  0  0  0  0  0  0  0
    4.6146    9.3406   19.6895 C   0  0  0  0  0  0  0  0  0  0  0  0
    4.1368    8.3514   20.2738 O   0  0  0  0  0  0  0  0  0  0  0  0
    5.0521    9.2618   18.3719 N   0  0  0  0  0  0  0  0  0  0  0  0
    5.0737    8.2329   17.4074 C   0  0  1  0  0  0  0  0  0  0  0  0
    6.0325    8.5098   16.2676 C   0  0  0  0  0  0  0  0  0  0  0  0
    7.3312    8.6642   16.7225 O   0  0  0  0  0  0  0  0  0  0  0  0
    5.0179    6.8187   17.7502 C   0  0  0  0  0  0  0  0  0  0  0  0
    6.0052    6.0961   17.3187 O   0  0  0  0  0  0  0  0  0  0  0  0
    4.0414    6.1144   18.4728 N   0  0  0  0  0  0  0  0  0  0  0  0
    4.1168    4.6901   18.7398 C   0  0  2  0  0  0  0  0  0  0  0  0
    5.3719    4.2924   19.4220 C   0  0  0  0  0  0  0  0  0  0  0  0
    5.7069    3.0905   19.4714 O   0  0  0  0  0  0  0  0  0  0  0  0
    6.2347    5.2569   20.0480 N   0  0  0  0  0  0  0  0  0  0  0  0
    7.4473    4.7977   20.6784 C   0  0  0  0  0  0  0  0  0  0  0  0
    8.2278    5.8603   21.3474 C   0  0  0  0  0  0  0  0  0  0  0  0
    9.3352    5.4738   21.8770 O   0  0  0  0  0  0  0  0  0  0  0  0
    7.8451    7.2170   21.4440 N   0  0  0  0  0  0  0  0  0  0  0  0
    8.6490    8.1954   22.1211 C   0  0  0  0  0  0  0  0  0  0  0  0
   10.0003    8.3863   21.5604 C   0  0  0  0  0  0  0  0  0  0  0  0
   10.4556    7.7656   20.5610 O   0  0  0  0  0  0  0  0  0  0  0  0
   10.8603    9.3410   22.1998 N   0  0  0  0  0  0  0  0  0  0  0  0
   12.1778    9.6425   21.7816 C   0  0  1  0  0  0  0  0  0  0  0  0
   13.2236    8.6047   21.8928 C   0  0  0  0  0  0  0  0  0  0  0  0
   13.4722    8.0775   23.2703 C   0  0  0  0  0  0  0  0  0  0  0  0
   12.3289    7.3455   23.9068 C   0  0  0  0  0  0  0  0  0  0  0  0
   12.7105    6.8339   25.2934 C   0  0  0  0  0  0  0  0  0  0  0  0
   13.0600    7.9410   26.1701 N   0  0  0  0  0  0  0  0  0  0  0  0
   12.1642   10.2157   20.3610 C   0  0  0  0  0  0  0  0  0  0  0  0
   13.2891   10.2852   19.7949 O   0  0  0  0  0  0  0  0  0  0  0  0
   10.9548   10.6320   19.7614 N   0  0  0  0  0  0  0  0  0  0  0  0
   10.9752   11.1667   18.3953 C   0  0  1  0  0  0  0  0  0  0  0  0
   10.8725   12.6624   18.3705 C   0  0  0  0  0  0  0  0  0  0  0  0
   12.2319   10.7068   17.6902 C   0  0  0  0  0  0  0  0  0  0  0  0
   13.1869   11.5016   17.4539 O   0  0  0  0  0  0  0  0  0  0  0  0
   12.2740    9.3736   17.3206 O   0  0  0  0  0  0  0  0  0  0  0  0
    3.8445    3.8304   17.5515 C   0  0  1  0  0  0  0  0  0  0  0  0
    2.4211    3.9972   17.0426 C   0  0  0  0  0  0  0  0  0  0  0  0
    4.7120    4.0281   16.4805 O   0  0  0  0  0  0  0  0  0  0  0  0
   -2.5614   14.9830   24.5231 C   0  0  1  0  0  0  0  0  0  0  0  0
   -3.1745   14.0596   25.5337 C   0  0  0  0  0  0  0  0  0  0  0  0
   -1.3292   15.3903   25.0522 O   0  0  0  0  0  0  0  0  0  0  0  0
   -8.4389    6.7832   19.2496 C   0  0  1  0  0  0  0  0  0  0  0  0
   -8.4153    7.2207   20.6937 C   0  0  0  0  0  0  0  0  0  0  0  0
   -9.5488    5.9759   19.0485 O   0  0  0  0  0  0  0  0  0  0  0  0
  2  1  1  1
  2  3  1  0
  2  4  1  0
  4  5  2  0
  4  6  1  0
  6  7  1  0
  7  8  1  1
  7  9  1  0
  9 10  2  0
  9 11  1  0
 12 11  1  6
 12 13  1  0
 13 14  2  0
 13 15  1  0
 15 16  1  0
 16 17  1  6
 17 18  1  0
 18 19  1  0
 19 20  1  0
 20 21  1  0
 16 22  1  0
 22 23  2  0
 22 24  1  0
 24 25  1  0
 25 26  1  1
 26 27  1  0
 27 28  1  0
 28 29  1  0
 28 30  2  0
 25 31  1  0
 31 32  2  0
 31 33  1  0
 34 33  1  1
 34 35  1  0
 35 36  2  0
 35 37  1  0
 37 38  1  0
 38 39  1  6
 38 40  1  0
 40 41  2  0
 40 42  1  0
 42 43  1  0
 43 44  1  1
 44 45  1  0
 45 46  1  0
 46 47  1  0
 47 48  1  0
 48 49  1  0
 48 50  2  0
 43 51  1  0
 51 52  2  0
 51 53  1  0
 53 54  1  0
 54 55  1  1
 55 56  1  0
 56 57  1  0
 57 58  1  0
 58 59  1  0
 59 60  1  0
 59 61  1  0
 59 62  1  0
 54 63  1  0
 63 64  2  0
 63 65  1  0
 65 66  1  0
 66 67  1  1
 67 68  1  0
 66 69  1  0
 69 70  2  0
 69 71  1  0
 72 71  1  6
 72 73  1  0
 73 74  2  0
 73 75  1  0
 75 76  1  0
 76 77  1  0
 77 78  2  0
 77 79  1  0
 79 80  1  0
 80 81  1  0
 81 82  2  0
 81 83  1  0
 83 84  1  0
 84 85  1  6
 85 86  1  0
 86 87  1  0
 87 88  1  0
 88 89  1  0
 84 90  1  0
 90 91  2  0
 90 92  1  0
 92 93  1  0
 93 94  1  1
 93 95  1  0
 95 96  2  0
 95 97  1  0
 72 98  1  0
 98 99  1  6
 98100  1  0
 34101  1  0
101102  1  1
101103  1  0
 12104  1  0
104105  1  1
104106  1  0
M  CHG  6   3   1  21   1  50   1  59   1  89   1  97  -1
M  END
>  <shape_align_shape_tanimoto>  (3) 
0.27720097457413206

>  <shape_align_color_tanimoto>  (3) 
0.026174140468862087

>  <metric>  (3) 
combo

>  <metric_score>  (3) 
0.152

>  <template_pid>  (3) 
3QO2

>  <template_shape_score>  (3) 
0.277

>  <template_color_score>  (3) 
0.026

>  <template_combo_score>  (3) 
0.152

$$$$
