4Z0D_shape_pose
     RDKit          3D

101105  0  0  0  0  0  0  0  0999 V2000
  123.2543   90.5965  283.6992 C   0  0  0  0  0  0  0  0  0  0  0  0
  123.8067   91.7434  284.5605 C   0  0  0  0  0  0  0  0  0  0  0  0
  123.6170   93.0627  283.8668 C   0  0  2  0  0  0  0  0  0  0  0  0
  124.3922   93.0376  282.5685 C   0  0  0  0  0  0  0  0  0  0  0  0
  123.8813   94.2044  284.7679 C   0  0  2  0  0  0  0  0  0  0  0  0
  123.6952   95.4982  284.0884 N   0  0  0  0  0  0  0  0  0  0  0  0
  122.9367   96.5267  284.6967 C   0  0  0  0  0  0  0  0  0  0  0  0
  122.6173   96.2581  285.9086 O   0  0  0  0  0  0  0  0  0  0  0  0
  122.4874   97.8034  284.1820 C   0  0  2  0  0  0  0  0  0  0  0  0
  121.1588   98.2480  284.7914 C   0  0  0  0  0  0  0  0  0  0  0  0
  122.4883   98.0136  282.7489 N   0  0  0  0  0  0  0  0  0  0  0  0
  123.2258   99.0111  282.0818 C   0  0  0  0  0  0  0  0  0  0  0  0
  123.9640   99.6752  282.8634 O   0  0  0  0  0  0  0  0  0  0  0  0
  123.2725   99.3923  280.6647 C   0  0  2  0  0  0  0  0  0  0  0  0
  123.6571   98.4255  279.6310 C   0  0  0  0  0  0  0  0  0  0  0  0
  122.7772   97.2158  279.6084 C   0  0  0  0  0  0  0  0  0  0  0  0
  121.3763   97.6031  279.3723 C   0  0  0  0  0  0  0  0  0  0  0  0
  120.3913   96.5807  279.6293 N   0  0  0  0  0  0  0  0  0  0  0  0
  120.9621   98.6933  278.9817 O   0  0  0  0  0  0  0  0  0  0  0  0
  124.2094  100.5808  280.5812 N   0  0  0  0  0  0  0  0  0  0  0  0
  123.7159  101.8927  280.3559 C   0  0  0  0  0  0  0  0  0  0  0  0
  122.4988  101.9905  280.1908 O   0  0  0  0  0  0  0  0  0  0  0  0
  124.5484  103.1079  280.3095 C   0  0  2  0  0  0  0  0  0  0  0  0
  123.7703  104.2286  279.6324 C   0  0  0  0  0  0  0  0  0  0  0  0
  124.0752  104.0195  278.1695 C   0  0  0  0  0  0  0  0  0  0  0  0
  125.2211  103.0010  278.1237 C   0  0  0  0  0  0  0  0  0  0  0  0
  125.7349  103.0277  279.4345 N   0  0  0  0  0  0  0  0  0  0  0  0
  127.0503  102.9931  280.0170 C   0  0  0  0  0  0  0  0  0  0  0  0
  127.0097  102.9774  281.2635 O   0  0  0  0  0  0  0  0  0  0  0  0
  128.3231  102.9780  279.2807 C   0  0  2  0  0  0  0  0  0  0  0  0
  128.2570  102.4439  277.8891 C   0  0  0  0  0  0  0  0  0  0  0  0
  129.6403  101.7962  277.7284 C   0  0  0  0  0  0  0  0  0  0  0  0
  129.7988  101.1610  279.1151 C   0  0  0  0  0  0  0  0  0  0  0  0
  129.4010  102.2468  279.9464 N   0  0  0  0  0  0  0  0  0  0  0  0
  129.9397  102.6302  281.2038 C   0  0  0  0  0  0  0  0  0  0  0  0
  129.4226  103.6511  281.6863 O   0  0  0  0  0  0  0  0  0  0  0  0
  131.0086  101.9567  281.9468 C   0  0  2  0  0  0  0  0  0  0  0  0
  130.8181  100.4890  282.1434 C   0  0  0  0  0  0  0  0  0  0  0  0
  131.1952  102.5706  283.2791 N   0  0  0  0  0  0  0  0  0  0  0  0
  132.4363  103.1418  283.6820 C   0  0  0  0  0  0  0  0  0  0  0  0
  133.3207  103.0829  282.7926 O   0  0  0  0  0  0  0  0  0  0  0  0
  132.7652  103.7506  284.9494 C   0  0  2  0  0  0  0  0  0  0  0  0
  133.7468  102.8346  285.7053 C   0  0  0  0  0  0  0  0  0  0  0  0
  135.0338  102.6021  284.9727 C   0  0  0  0  0  0  0  0  0  0  0  0
  136.1463  101.5237  285.9523 S   0  0  0  0  0  0  0  0  0  0  0  0
  135.4370   99.8627  286.1101 C   0  0  0  0  0  0  0  0  0  0  0  0
  131.6832  103.9412  285.9268 N   0  0  0  0  0  0  0  0  0  0  0  0
  131.4821  105.2543  286.4599 C   0  0  0  0  0  0  0  0  0  0  0  0
  132.1660  106.1454  285.9358 O   0  0  0  0  0  0  0  0  0  0  0  0
  130.5566  105.6315  287.5429 C   0  0  2  0  0  0  0  0  0  0  0  0
  131.5008  106.2689  288.6022 C   0  0  0  0  0  0  0  0  0  0  0  0
  130.7736  106.7900  289.7891 C   0  0  0  0  0  0  0  0  0  0  0  0
  129.8287  107.9249  289.4408 C   0  0  0  0  0  0  0  0  0  0  0  0
  129.1127  108.3265  290.6273 N   0  0  0  0  0  0  0  0  0  0  0  0
  128.1423  109.3791  290.5061 C   0  0  0  0  0  0  0  0  0  0  0  0
  127.3892  109.8403  291.6177 N   0  0  0  0  0  0  0  0  0  0  0  0
  127.9771  109.8981  289.3429 N   0  0  0  0  0  0  0  0  0  0  0  0
  129.9468  104.4509  288.1255 N   0  0  0  0  0  0  0  0  0  0  0  0
  128.6507  104.3932  288.6997 C   0  0  0  0  0  0  0  0  0  0  0  0
  127.9985  105.4482  288.6933 O   0  0  0  0  0  0  0  0  0  0  0  0
  128.0208  103.1955  289.3078 C   0  0  2  0  0  0  0  0  0  0  0  0
  127.9992  103.3615  290.8244 C   0  0  1  0  0  0  0  0  0  0  0  0
  127.2675  104.6471  291.1196 C   0  0  0  0  0  0  0  0  0  0  0  0
  127.3307  102.2744  291.3356 O   0  0  0  0  0  0  0  0  0  0  0  0
  128.7228  101.9490  288.9942 N   0  0  0  0  0  0  0  0  0  0  0  0
  128.0815  101.0787  288.1021 C   0  0  0  0  0  0  0  0  0  0  0  0
  126.9565  101.4280  287.6805 O   0  0  0  0  0  0  0  0  0  0  0  0
  128.5856   99.7665  287.5747 C   0  0  2  0  0  0  0  0  0  0  0  0
  129.9618   99.4059  287.7950 C   0  0  1  0  0  0  0  0  0  0  0  0
  131.0272  100.0482  286.9384 C   0  0  0  0  0  0  0  0  0  0  0  0
  130.3016   99.5405  289.1540 O   0  0  0  0  0  0  0  0  0  0  0  0
  128.0424   99.6329  286.2058 N   0  0  0  0  0  0  0  0  0  0  0  0
  127.9488  100.8195  285.3852 C   0  0  0  0  0  0  0  0  0  0  0  0
  128.4436  101.8315  285.8901 O   0  0  0  0  0  0  0  0  0  0  0  0
  127.3281  100.8575  284.0568 C   0  0  2  0  0  0  0  0  0  0  0  0
  126.1093  101.7558  284.1146 C   0  0  0  0  0  0  0  0  0  0  0  0
  126.3235  103.1503  284.4737 C   0  0  0  0  0  0  0  0  0  0  0  0
  127.4007  103.9972  284.4666 C   0  0  0  0  0  0  0  0  0  0  0  0
  127.0594  105.2318  284.8903 N   0  0  0  0  0  0  0  0  0  0  0  0
  125.7545  105.2128  285.1796 C   0  0  0  0  0  0  0  0  0  0  0  0
  124.9068  106.2100  285.6413 C   0  0  0  0  0  0  0  0  0  0  0  0
  123.5486  105.9280  285.8602 C   0  0  0  0  0  0  0  0  0  0  0  0
  123.0413  104.6648  285.6219 C   0  0  0  0  0  0  0  0  0  0  0  0
  123.9354  103.7042  285.1605 C   0  0  0  0  0  0  0  0  0  0  0  0
  125.2635  103.9580  284.9398 C   0  0  0  0  0  0  0  0  0  0  0  0
  126.9075   99.5092  283.6069 N   0  0  0  0  0  0  0  0  0  0  0  0
  127.1660   99.0614  282.2864 C   0  0  0  0  0  0  0  0  0  0  0  0
  127.7440   99.9005  281.5623 O   0  0  0  0  0  0  0  0  0  0  0  0
  126.8351   97.7567  281.7030 C   0  0  1  0  0  0  0  0  0  0  0  0
  127.4094   97.5100  280.4142 N   0  0  0  0  0  0  0  0  0  0  0  0
  127.0333   96.5662  282.6264 C   0  0  0  0  0  0  0  0  0  0  0  0
  128.6421   96.5091  283.3598 S   0  0  0  0  0  0  0  0  0  0  0  0
  129.0700   94.8434  284.5547 S   0  0  0  0  0  0  0  0  0  0  0  0
  128.6372   94.9821  286.2673 C   0  0  0  0  0  0  0  0  0  0  0  0
  127.2452   94.6816  286.6284 C   0  0  1  0  0  0  0  0  0  0  0  0
  127.0038   95.0124  288.0982 C   0  0  0  0  0  0  0  0  0  0  0  0
  126.1070   94.4218  288.7429 O   0  0  0  0  0  0  0  0  0  0  0  0
  127.7814   95.9720  288.7243 O   0  0  0  0  0  0  0  0  0  0  0  0
  126.1246   95.0346  285.8347 N   0  0  0  0  0  0  0  0  0  0  0  0
  125.0827   94.0692  285.5451 C   0  0  0  0  0  0  0  0  0  0  0  0
  125.3148   92.9536  286.0947 O   0  0  0  0  0  0  0  0  0  0  0  0
  1  2  1  0
  2  3  1  0
  3  4  1  6
  3  5  1  0
  5  6  1  6
  6  7  1  0
  7  8  2  0
  7  9  1  0
  9 10  1  6
  9 11  1  0
 11 12  1  0
 12 13  2  0
 12 14  1  0
 14 15  1  6
 15 16  1  0
 16 17  1  0
 17 18  1  0
 17 19  2  0
 14 20  1  0
 20 21  1  0
 21 22  2  0
 21 23  1  0
 23 24  1  6
 24 25  1  0
 25 26  1  0
 26 27  1  0
 27 28  1  0
 28 29  2  0
 28 30  1  0
 30 31  1  6
 31 32  1  0
 32 33  1  0
 33 34  1  0
 34 35  1  0
 35 36  2  0
 35 37  1  0
 37 38  1  1
 37 39  1  0
 39 40  1  0
 40 41  2  0
 40 42  1  0
 42 43  1  1
 43 44  1  0
 44 45  1  0
 45 46  1  0
 42 47  1  0
 47 48  1  0
 48 49  2  0
 48 50  1  0
 50 51  1  1
 51 52  1  0
 52 53  1  0
 53 54  1  0
 54 55  1  0
 55 56  1  0
 55 57  2  0
 50 58  1  0
 58 59  1  0
 59 60  2  0
 59 61  1  0
 61 62  1  0
 62 63  1  6
 62 64  1  0
 61 65  1  1
 65 66  1  0
 66 67  2  0
 66 68  1  0
 68 69  1  0
 69 70  1  6
 69 71  1  0
 68 72  1  6
 72 73  1  0
 73 74  2  0
 73 75  1  0
 75 76  1  1
 76 77  1  0
 77 78  2  0
 78 79  1  0
 79 80  1  0
 80 81  2  0
 81 82  1  0
 82 83  2  0
 83 84  1  0
 84 85  2  0
 75 86  1  0
 86 87  1  0
 87 88  2  0
 87 89  1  0
 89 90  1  6
 89 91  1  0
 91 92  1  0
 92 93  1  0
 93 94  1  0
 94 95  1  0
 95 96  1  1
 96 97  2  0
 96 98  1  0
 95 99  1  0
 99100  1  0
100101  2  0
100  5  1  0
 27 23  1  0
 34 30  1  0
 85 77  1  0
 85 80  1  0
M  CHG  3  57   1  90   1  98  -1
M  END
>  <shape_align_shape_tanimoto>  (1) 
0.33094941965631558

>  <shape_align_color_tanimoto>  (1) 
0.026030779728731423

>  <metric>  (1) 
shape

>  <metric_score>  (1) 
0.331

>  <template_pid>  (1) 
4Z0D

>  <template_shape_score>  (1) 
0.331

>  <template_color_score>  (1) 
0.026

>  <template_combo_score>  (1) 
0.178

$$$$
4Z0D_color_pose
     RDKit          3D

101105  0  0  0  0  0  0  0  0999 V2000
  124.7009  105.9333  293.4333 C   0  0  0  0  0  0  0  0  0  0  0  0
  125.6881  104.9963  292.8568 C   0  0  0  0  0  0  0  0  0  0  0  0
  125.1237  103.6044  292.5299 C   0  0  2  0  0  0  0  0  0  0  0  0
  124.6583  102.9799  293.8340 C   0  0  0  0  0  0  0  0  0  0  0  0
  126.3371  102.8520  291.9591 C   0  0  2  0  0  0  0  0  0  0  0  0
  126.7803  103.6831  290.8466 N   0  0  0  0  0  0  0  0  0  0  0  0
  128.1221  103.9826  290.5163 C   0  0  0  0  0  0  0  0  0  0  0  0
  128.9788  103.2792  291.1428 O   0  0  0  0  0  0  0  0  0  0  0  0
  128.6038  104.9717  289.5689 C   0  0  2  0  0  0  0  0  0  0  0  0
  127.5139  105.6647  288.7753 C   0  0  0  0  0  0  0  0  0  0  0  0
  129.7654  104.5932  288.7853 N   0  0  0  0  0  0  0  0  0  0  0  0
  130.6035  105.5718  288.2029 C   0  0  0  0  0  0  0  0  0  0  0  0
  130.2997  106.7695  288.5699 O   0  0  0  0  0  0  0  0  0  0  0  0
  131.7232  105.4309  287.2925 C   0  0  2  0  0  0  0  0  0  0  0  0
  131.8508  106.6986  286.4413 C   0  0  0  0  0  0  0  0  0  0  0  0
  133.1377  106.6112  285.7011 C   0  0  0  0  0  0  0  0  0  0  0  0
  133.3688  107.7705  284.7578 C   0  0  0  0  0  0  0  0  0  0  0  0
  134.4221  107.5976  283.8371 N   0  0  0  0  0  0  0  0  0  0  0  0
  132.6217  108.7427  284.9100 O   0  0  0  0  0  0  0  0  0  0  0  0
  131.8045  104.2097  286.5735 N   0  0  0  0  0  0  0  0  0  0  0  0
  131.7809  103.9902  285.1658 C   0  0  0  0  0  0  0  0  0  0  0  0
  131.4045  104.9577  284.4614 O   0  0  0  0  0  0  0  0  0  0  0  0
  132.1455  102.7121  284.4799 C   0  0  2  0  0  0  0  0  0  0  0  0
  133.6951  102.8037  284.3481 C   0  0  0  0  0  0  0  0  0  0  0  0
  133.8585  103.6987  283.1543 C   0  0  0  0  0  0  0  0  0  0  0  0
  132.5114  103.6610  282.4318 C   0  0  0  0  0  0  0  0  0  0  0  0
  131.7869  102.6283  283.0798 N   0  0  0  0  0  0  0  0  0  0  0  0
  131.0211  101.5805  282.5017 C   0  0  0  0  0  0  0  0  0  0  0  0
  130.8863  100.6047  283.2911 O   0  0  0  0  0  0  0  0  0  0  0  0
  130.4238  101.4928  281.1799 C   0  0  2  0  0  0  0  0  0  0  0  0
  130.2691  102.7501  280.3679 C   0  0  0  0  0  0  0  0  0  0  0  0
  129.2072  102.3411  279.3206 C   0  0  0  0  0  0  0  0  0  0  0  0
  128.7892  100.9141  279.7017 C   0  0  0  0  0  0  0  0  0  0  0  0
  129.0247  101.0188  281.1249 N   0  0  0  0  0  0  0  0  0  0  0  0
  128.1361  100.8535  282.1603 C   0  0  0  0  0  0  0  0  0  0  0  0
  128.5885  101.3191  283.2864 O   0  0  0  0  0  0  0  0  0  0  0  0
  126.7867  100.2636  282.2718 C   0  0  2  0  0  0  0  0  0  0  0  0
  126.8268   99.0423  283.1943 C   0  0  0  0  0  0  0  0  0  0  0  0
  126.0948   99.9721  281.0485 N   0  0  0  0  0  0  0  0  0  0  0  0
  125.0983  100.6663  280.4085 C   0  0  0  0  0  0  0  0  0  0  0  0
  125.2007  101.8115  281.5047 O   0  0  0  0  0  0  0  0  0  0  0  0
  124.0700  101.3604  279.7288 C   0  0  2  0  0  0  0  0  0  0  0  0
  124.6920  102.0024  278.4259 C   0  0  0  0  0  0  0  0  0  0  0  0
  123.6267  102.6372  277.6058 C   0  0  0  0  0  0  0  0  0  0  0  0
  124.3385  103.4276  276.0994 S   0  0  0  0  0  0  0  0  0  0  0  0
  125.2829  104.8664  276.7280 C   0  0  0  0  0  0  0  0  0  0  0  0
  123.6206  102.5810  280.5172 N   0  0  0  0  0  0  0  0  0  0  0  0
  122.2622  102.9549  280.5234 C   0  0  0  0  0  0  0  0  0  0  0  0
  121.4874  102.1880  279.9119 O   0  0  0  0  0  0  0  0  0  0  0  0
  121.7094  104.2209  281.2060 C   0  0  2  0  0  0  0  0  0  0  0  0
  122.5366  105.3784  280.6102 C   0  0  0  0  0  0  0  0  0  0  0  0
  122.0383  106.7722  280.8991 C   0  0  0  0  0  0  0  0  0  0  0  0
  123.2811  107.7070  280.6442 C   0  0  0  0  0  0  0  0  0  0  0  0
  124.1006  107.4625  281.8027 N   0  0  0  0  0  0  0  0  0  0  0  0
  123.6367  108.1726  283.0166 C   0  0  0  0  0  0  0  0  0  0  0  0
  124.3466  108.1626  284.2095 N   0  0  0  0  0  0  0  0  0  0  0  0
  122.5292  108.9671  282.8154 N   0  0  0  0  0  0  0  0  0  0  0  0
  122.3167  104.0381  282.5527 N   0  0  0  0  0  0  0  0  0  0  0  0
  121.7399  104.0226  283.8097 C   0  0  0  0  0  0  0  0  0  0  0  0
  120.5008  104.2020  283.8731 O   0  0  0  0  0  0  0  0  0  0  0  0
  122.4656  103.8138  285.0841 C   0  0  2  0  0  0  0  0  0  0  0  0
  122.1703  104.9528  286.0577 C   0  0  1  0  0  0  0  0  0  0  0  0
  120.6539  104.8023  286.3957 C   0  0  0  0  0  0  0  0  0  0  0  0
  122.8144  104.6459  287.2795 O   0  0  0  0  0  0  0  0  0  0  0  0
  123.8749  103.5465  284.9100 N   0  0  0  0  0  0  0  0  0  0  0  0
  124.9701  104.2852  285.3991 C   0  0  0  0  0  0  0  0  0  0  0  0
  124.6887  105.4334  285.8210 O   0  0  0  0  0  0  0  0  0  0  0  0
  126.4108  103.9176  285.4784 C   0  0  2  0  0  0  0  0  0  0  0  0
  127.2374  104.4855  284.3486 C   0  0  1  0  0  0  0  0  0  0  0  0
  126.6502  104.2652  282.9735 C   0  0  0  0  0  0  0  0  0  0  0  0
  127.2423  105.9031  284.4725 O   0  0  0  0  0  0  0  0  0  0  0  0
  126.5373  102.4414  285.5344 N   0  0  0  0  0  0  0  0  0  0  0  0
  127.3321  101.6591  286.2394 C   0  0  0  0  0  0  0  0  0  0  0  0
  128.1363  102.9129  286.8314 O   0  0  0  0  0  0  0  0  0  0  0  0
  128.1929  100.7614  287.0050 C   0  0  2  0  0  0  0  0  0  0  0  0
  129.6243  100.9501  286.6962 C   0  0  0  0  0  0  0  0  0  0  0  0
  130.6060  100.0866  287.3573 C   0  0  0  0  0  0  0  0  0  0  0  0
  131.3379   99.1233  286.6002 C   0  0  0  0  0  0  0  0  0  0  0  0
  132.2594   98.5398  287.4387 N   0  0  0  0  0  0  0  0  0  0  0  0
  132.1403   99.0843  288.6835 C   0  0  0  0  0  0  0  0  0  0  0  0
  132.8559   98.7612  289.7980 C   0  0  0  0  0  0  0  0  0  0  0  0
  132.5249   99.4365  290.9714 C   0  0  0  0  0  0  0  0  0  0  0  0
  131.5157  100.3602  290.8779 C   0  0  0  0  0  0  0  0  0  0  0  0
  130.8082  100.6832  289.7652 C   0  0  0  0  0  0  0  0  0  0  0  0
  131.1495   99.9838  288.5854 C   0  0  0  0  0  0  0  0  0  0  0  0
  127.8816   99.3579  286.6900 N   0  0  0  0  0  0  0  0  0  0  0  0
  126.6121   98.8458  287.1221 C   0  0  0  0  0  0  0  0  0  0  0  0
  125.8646   99.6696  287.6730 O   0  0  0  0  0  0  0  0  0  0  0  0
  126.1746   97.4403  286.9501 C   0  0  1  0  0  0  0  0  0  0  0  0
  127.3291   96.5460  286.7899 N   0  0  0  0  0  0  0  0  0  0  0  0
  125.4516   97.0625  288.1931 C   0  0  0  0  0  0  0  0  0  0  0  0
  126.4633   96.6006  289.6074 S   0  0  0  0  0  0  0  0  0  0  0  0
  125.0485   96.4798  291.2458 S   0  0  0  0  0  0  0  0  0  0  0  0
  125.1147   98.0655  292.0686 C   0  0  0  0  0  0  0  0  0  0  0  0
  124.8727   99.2794  291.2170 C   0  0  1  0  0  0  0  0  0  0  0  0
  123.4736   99.2512  290.7205 C   0  0  0  0  0  0  0  0  0  0  0  0
  122.5625   98.5595  291.2741 O   0  0  0  0  0  0  0  0  0  0  0  0
  123.0456   99.9856  289.5971 O   0  0  0  0  0  0  0  0  0  0  0  0
  125.2103  100.4868  291.9406 N   0  0  0  0  0  0  0  0  0  0  0  0
  125.9164  101.5561  291.3780 C   0  0  0  0  0  0  0  0  0  0  0  0
  126.2462  101.3829  290.1706 O   0  0  0  0  0  0  0  0  0  0  0  0
  1  2  1  0
  2  3  1  0
  3  4  1  1
  3  5  1  0
  5  6  1  6
  6  7  1  0
  7  8  2  0
  7  9  1  0
  9 10  1  6
  9 11  1  0
 11 12  1  0
 12 13  2  0
 12 14  1  0
 14 15  1  6
 15 16  1  0
 16 17  1  0
 17 18  1  0
 17 19  2  0
 14 20  1  0
 20 21  1  0
 21 22  2  0
 21 23  1  0
 23 24  1  6
 24 25  1  0
 25 26  1  0
 26 27  1  0
 27 28  1  0
 28 29  2  0
 28 30  1  0
 30 31  1  1
 31 32  1  0
 32 33  1  0
 33 34  1  0
 34 35  1  0
 35 36  2  0
 35 37  1  0
 37 38  1  6
 37 39  1  0
 39 40  1  0
 40 41  2  0
 40 42  1  0
 42 43  1  6
 43 44  1  0
 44 45  1  0
 45 46  1  0
 42 47  1  0
 47 48  1  0
 48 49  2  0
 48 50  1  0
 50 51  1  6
 51 52  1  0
 52 53  1  0
 53 54  1  0
 54 55  1  0
 55 56  1  0
 55 57  2  0
 50 58  1  0
 58 59  1  0
 59 60  2  0
 59 61  1  0
 61 62  1  0
 62 63  1  1
 62 64  1  0
 61 65  1  6
 65 66  1  0
 66 67  2  0
 66 68  1  0
 68 69  1  0
 69 70  1  6
 69 71  1  0
 68 72  1  6
 72 73  1  0
 73 74  2  0
 73 75  1  0
 75 76  1  6
 76 77  1  0
 77 78  2  0
 78 79  1  0
 79 80  1  0
 80 81  2  0
 81 82  1  0
 82 83  2  0
 83 84  1  0
 84 85  2  0
 75 86  1  0
 86 87  1  0
 87 88  2  0
 87 89  1  0
 89 90  1  1
 89 91  1  0
 91 92  1  0
 92 93  1  0
 93 94  1  0
 94 95  1  0
 95 96  1  1
 96 97  2  0
 96 98  1  0
 95 99  1  0
 99100  1  0
100101  2  0
100  5  1  0
 27 23  1  0
 34 30  1  0
 85 77  1  0
 85 80  1  0
M  CHG  3  57   1  90   1  98  -1
M  END
>  <shape_align_shape_tanimoto>  (2) 
0.29235158448154397

>  <shape_align_color_tanimoto>  (2) 
0.064402734229209904

>  <metric>  (2) 
color

>  <metric_score>  (2) 
0.064

>  <template_pid>  (2) 
4Z0D

>  <template_shape_score>  (2) 
0.292

>  <template_color_score>  (2) 
0.064

>  <template_combo_score>  (2) 
0.178

$$$$
4Z0D_combo_pose
     RDKit          3D

101105  0  0  0  0  0  0  0  0999 V2000
  123.2543   90.5965  283.6992 C   0  0  0  0  0  0  0  0  0  0  0  0
  123.8067   91.7434  284.5605 C   0  0  0  0  0  0  0  0  0  0  0  0
  123.6170   93.0627  283.8668 C   0  0  2  0  0  0  0  0  0  0  0  0
  124.3922   93.0376  282.5685 C   0  0  0  0  0  0  0  0  0  0  0  0
  123.8813   94.2044  284.7679 C   0  0  2  0  0  0  0  0  0  0  0  0
  123.6952   95.4982  284.0884 N   0  0  0  0  0  0  0  0  0  0  0  0
  122.9367   96.5267  284.6967 C   0  0  0  0  0  0  0  0  0  0  0  0
  122.6173   96.2581  285.9086 O   0  0  0  0  0  0  0  0  0  0  0  0
  122.4874   97.8034  284.1820 C   0  0  2  0  0  0  0  0  0  0  0  0
  121.1588   98.2480  284.7914 C   0  0  0  0  0  0  0  0  0  0  0  0
  122.4883   98.0136  282.7489 N   0  0  0  0  0  0  0  0  0  0  0  0
  123.2258   99.0111  282.0818 C   0  0  0  0  0  0  0  0  0  0  0  0
  123.9640   99.6752  282.8634 O   0  0  0  0  0  0  0  0  0  0  0  0
  123.2725   99.3923  280.6647 C   0  0  2  0  0  0  0  0  0  0  0  0
  123.6571   98.4255  279.6310 C   0  0  0  0  0  0  0  0  0  0  0  0
  122.7772   97.2158  279.6084 C   0  0  0  0  0  0  0  0  0  0  0  0
  121.3763   97.6031  279.3723 C   0  0  0  0  0  0  0  0  0  0  0  0
  120.3913   96.5807  279.6293 N   0  0  0  0  0  0  0  0  0  0  0  0
  120.9621   98.6933  278.9817 O   0  0  0  0  0  0  0  0  0  0  0  0
  124.2094  100.5808  280.5812 N   0  0  0  0  0  0  0  0  0  0  0  0
  123.7159  101.8927  280.3559 C   0  0  0  0  0  0  0  0  0  0  0  0
  122.4988  101.9905  280.1908 O   0  0  0  0  0  0  0  0  0  0  0  0
  124.5484  103.1079  280.3095 C   0  0  2  0  0  0  0  0  0  0  0  0
  123.7703  104.2286  279.6324 C   0  0  0  0  0  0  0  0  0  0  0  0
  124.0752  104.0195  278.1695 C   0  0  0  0  0  0  0  0  0  0  0  0
  125.2211  103.0010  278.1237 C   0  0  0  0  0  0  0  0  0  0  0  0
  125.7349  103.0277  279.4345 N   0  0  0  0  0  0  0  0  0  0  0  0
  127.0503  102.9931  280.0170 C   0  0  0  0  0  0  0  0  0  0  0  0
  127.0097  102.9774  281.2635 O   0  0  0  0  0  0  0  0  0  0  0  0
  128.3231  102.9780  279.2807 C   0  0  2  0  0  0  0  0  0  0  0  0
  128.2570  102.4439  277.8891 C   0  0  0  0  0  0  0  0  0  0  0  0
  129.6403  101.7962  277.7284 C   0  0  0  0  0  0  0  0  0  0  0  0
  129.7988  101.1610  279.1151 C   0  0  0  0  0  0  0  0  0  0  0  0
  129.4010  102.2468  279.9464 N   0  0  0  0  0  0  0  0  0  0  0  0
  129.9397  102.6302  281.2038 C   0  0  0  0  0  0  0  0  0  0  0  0
  129.4226  103.6511  281.6863 O   0  0  0  0  0  0  0  0  0  0  0  0
  131.0086  101.9567  281.9468 C   0  0  2  0  0  0  0  0  0  0  0  0
  130.8181  100.4890  282.1434 C   0  0  0  0  0  0  0  0  0  0  0  0
  131.1952  102.5706  283.2791 N   0  0  0  0  0  0  0  0  0  0  0  0
  132.4363  103.1418  283.6820 C   0  0  0  0  0  0  0  0  0  0  0  0
  133.3207  103.0829  282.7926 O   0  0  0  0  0  0  0  0  0  0  0  0
  132.7652  103.7506  284.9494 C   0  0  2  0  0  0  0  0  0  0  0  0
  133.7468  102.8346  285.7053 C   0  0  0  0  0  0  0  0  0  0  0  0
  135.0338  102.6021  284.9727 C   0  0  0  0  0  0  0  0  0  0  0  0
  136.1463  101.5237  285.9523 S   0  0  0  0  0  0  0  0  0  0  0  0
  135.4370   99.8627  286.1101 C   0  0  0  0  0  0  0  0  0  0  0  0
  131.6832  103.9412  285.9268 N   0  0  0  0  0  0  0  0  0  0  0  0
  131.4821  105.2543  286.4599 C   0  0  0  0  0  0  0  0  0  0  0  0
  132.1660  106.1454  285.9358 O   0  0  0  0  0  0  0  0  0  0  0  0
  130.5566  105.6315  287.5429 C   0  0  2  0  0  0  0  0  0  0  0  0
  131.5008  106.2689  288.6022 C   0  0  0  0  0  0  0  0  0  0  0  0
  130.7736  106.7900  289.7891 C   0  0  0  0  0  0  0  0  0  0  0  0
  129.8287  107.9249  289.4408 C   0  0  0  0  0  0  0  0  0  0  0  0
  129.1127  108.3265  290.6273 N   0  0  0  0  0  0  0  0  0  0  0  0
  128.1423  109.3791  290.5061 C   0  0  0  0  0  0  0  0  0  0  0  0
  127.3892  109.8403  291.6177 N   0  0  0  0  0  0  0  0  0  0  0  0
  127.9771  109.8981  289.3429 N   0  0  0  0  0  0  0  0  0  0  0  0
  129.9468  104.4509  288.1255 N   0  0  0  0  0  0  0  0  0  0  0  0
  128.6507  104.3932  288.6997 C   0  0  0  0  0  0  0  0  0  0  0  0
  127.9985  105.4482  288.6933 O   0  0  0  0  0  0  0  0  0  0  0  0
  128.0208  103.1955  289.3078 C   0  0  2  0  0  0  0  0  0  0  0  0
  127.9992  103.3615  290.8244 C   0  0  1  0  0  0  0  0  0  0  0  0
  127.2675  104.6471  291.1196 C   0  0  0  0  0  0  0  0  0  0  0  0
  127.3307  102.2744  291.3356 O   0  0  0  0  0  0  0  0  0  0  0  0
  128.7228  101.9490  288.9942 N   0  0  0  0  0  0  0  0  0  0  0  0
  128.0815  101.0787  288.1021 C   0  0  0  0  0  0  0  0  0  0  0  0
  126.9565  101.4280  287.6805 O   0  0  0  0  0  0  0  0  0  0  0  0
  128.5856   99.7665  287.5747 C   0  0  2  0  0  0  0  0  0  0  0  0
  129.9618   99.4059  287.7950 C   0  0  1  0  0  0  0  0  0  0  0  0
  131.0272  100.0482  286.9384 C   0  0  0  0  0  0  0  0  0  0  0  0
  130.3016   99.5405  289.1540 O   0  0  0  0  0  0  0  0  0  0  0  0
  128.0424   99.6329  286.2058 N   0  0  0  0  0  0  0  0  0  0  0  0
  127.9488  100.8195  285.3852 C   0  0  0  0  0  0  0  0  0  0  0  0
  128.4436  101.8315  285.8901 O   0  0  0  0  0  0  0  0  0  0  0  0
  127.3281  100.8575  284.0568 C   0  0  2  0  0  0  0  0  0  0  0  0
  126.1093  101.7558  284.1146 C   0  0  0  0  0  0  0  0  0  0  0  0
  126.3235  103.1503  284.4737 C   0  0  0  0  0  0  0  0  0  0  0  0
  127.4007  103.9972  284.4666 C   0  0  0  0  0  0  0  0  0  0  0  0
  127.0594  105.2318  284.8903 N   0  0  0  0  0  0  0  0  0  0  0  0
  125.7545  105.2128  285.1796 C   0  0  0  0  0  0  0  0  0  0  0  0
  124.9068  106.2100  285.6413 C   0  0  0  0  0  0  0  0  0  0  0  0
  123.5486  105.9280  285.8602 C   0  0  0  0  0  0  0  0  0  0  0  0
  123.0413  104.6648  285.6219 C   0  0  0  0  0  0  0  0  0  0  0  0
  123.9354  103.7042  285.1605 C   0  0  0  0  0  0  0  0  0  0  0  0
  125.2635  103.9580  284.9398 C   0  0  0  0  0  0  0  0  0  0  0  0
  126.9075   99.5092  283.6069 N   0  0  0  0  0  0  0  0  0  0  0  0
  127.1660   99.0614  282.2864 C   0  0  0  0  0  0  0  0  0  0  0  0
  127.7440   99.9005  281.5623 O   0  0  0  0  0  0  0  0  0  0  0  0
  126.8351   97.7567  281.7030 C   0  0  1  0  0  0  0  0  0  0  0  0
  127.4094   97.5100  280.4142 N   0  0  0  0  0  0  0  0  0  0  0  0
  127.0333   96.5662  282.6264 C   0  0  0  0  0  0  0  0  0  0  0  0
  128.6421   96.5091  283.3598 S   0  0  0  0  0  0  0  0  0  0  0  0
  129.0700   94.8434  284.5547 S   0  0  0  0  0  0  0  0  0  0  0  0
  128.6372   94.9821  286.2673 C   0  0  0  0  0  0  0  0  0  0  0  0
  127.2452   94.6816  286.6284 C   0  0  1  0  0  0  0  0  0  0  0  0
  127.0038   95.0124  288.0982 C   0  0  0  0  0  0  0  0  0  0  0  0
  126.1070   94.4218  288.7429 O   0  0  0  0  0  0  0  0  0  0  0  0
  127.7814   95.9720  288.7243 O   0  0  0  0  0  0  0  0  0  0  0  0
  126.1246   95.0346  285.8347 N   0  0  0  0  0  0  0  0  0  0  0  0
  125.0827   94.0692  285.5451 C   0  0  0  0  0  0  0  0  0  0  0  0
  125.3148   92.9536  286.0947 O   0  0  0  0  0  0  0  0  0  0  0  0
  1  2  1  0
  2  3  1  0
  3  4  1  6
  3  5  1  0
  5  6  1  6
  6  7  1  0
  7  8  2  0
  7  9  1  0
  9 10  1  6
  9 11  1  0
 11 12  1  0
 12 13  2  0
 12 14  1  0
 14 15  1  6
 15 16  1  0
 16 17  1  0
 17 18  1  0
 17 19  2  0
 14 20  1  0
 20 21  1  0
 21 22  2  0
 21 23  1  0
 23 24  1  6
 24 25  1  0
 25 26  1  0
 26 27  1  0
 27 28  1  0
 28 29  2  0
 28 30  1  0
 30 31  1  6
 31 32  1  0
 32 33  1  0
 33 34  1  0
 34 35  1  0
 35 36  2  0
 35 37  1  0
 37 38  1  1
 37 39  1  0
 39 40  1  0
 40 41  2  0
 40 42  1  0
 42 43  1  1
 43 44  1  0
 44 45  1  0
 45 46  1  0
 42 47  1  0
 47 48  1  0
 48 49  2  0
 48 50  1  0
 50 51  1  1
 51 52  1  0
 52 53  1  0
 53 54  1  0
 54 55  1  0
 55 56  1  0
 55 57  2  0
 50 58  1  0
 58 59  1  0
 59 60  2  0
 59 61  1  0
 61 62  1  0
 62 63  1  6
 62 64  1  0
 61 65  1  1
 65 66  1  0
 66 67  2  0
 66 68  1  0
 68 69  1  0
 69 70  1  6
 69 71  1  0
 68 72  1  6
 72 73  1  0
 73 74  2  0
 73 75  1  0
 75 76  1  1
 76 77  1  0
 77 78  2  0
 78 79  1  0
 79 80  1  0
 80 81  2  0
 81 82  1  0
 82 83  2  0
 83 84  1  0
 84 85  2  0
 75 86  1  0
 86 87  1  0
 87 88  2  0
 87 89  1  0
 89 90  1  6
 89 91  1  0
 91 92  1  0
 92 93  1  0
 93 94  1  0
 94 95  1  0
 95 96  1  1
 96 97  2  0
 96 98  1  0
 95 99  1  0
 99100  1  0
100101  2  0
100  5  1  0
 27 23  1  0
 34 30  1  0
 85 77  1  0
 85 80  1  0
M  CHG  3  57   1  90   1  98  -1
M  END
>  <shape_align_shape_tanimoto>  (3) 
0.33094941965631558

>  <shape_align_color_tanimoto>  (3) 
0.026030779728731423

>  <metric>  (3) 
combo

>  <metric_score>  (3) 
0.178

>  <template_pid>  (3) 
4Z0D

>  <template_shape_score>  (3) 
0.331

>  <template_color_score>  (3) 
0.026

>  <template_combo_score>  (3) 
0.178

$$$$
