5IZ6_shape_pose
     RDKit          3D

 63 64  0  0  0  0  0  0  0  0999 V2000
  -12.7290  -12.0702   62.2149 C   0  0  0  0  0  0  0  0  0  0  0  0
  -13.9296  -11.4931   61.5125 C   0  0  0  0  0  0  0  0  0  0  0  0
  -13.4011  -10.6412   60.3503 C   0  0  0  0  0  0  0  0  0  0  0  0
  -14.7784  -10.6318   62.3701 C   0  0  0  0  0  0  0  0  0  0  0  0
  -15.3801  -11.3212   63.5850 C   0  0  2  0  0  0  0  0  0  0  0  0
  -16.2212  -12.4289   63.1775 N   0  0  0  0  0  0  0  0  0  0  0  0
  -15.7524  -13.7416   63.4627 C   0  0  0  0  0  0  0  0  0  0  0  0
  -14.6338  -13.9249   64.0563 O   0  0  0  0  0  0  0  0  0  0  0  0
  -16.4977  -14.9663   63.1040 C   0  0  2  0  0  0  0  0  0  0  0  0
  -15.6913  -15.7699   62.0820 C   0  0  0  0  0  0  0  0  0  0  0  0
  -17.7830  -14.6219   62.5166 N   0  0  0  0  0  0  0  0  0  0  0  0
  -18.9121  -15.3439   63.0137 C   0  0  0  0  0  0  0  0  0  0  0  0
  -18.7234  -16.2299   63.9144 O   0  0  0  0  0  0  0  0  0  0  0  0
  -20.2890  -15.1436   62.5601 C   0  0  2  0  0  0  0  0  0  0  0  0
  -20.7969  -16.4031   61.8424 C   0  0  0  0  0  0  0  0  0  0  0  0
  -22.2066  -16.1193   61.4105 C   0  0  0  0  0  0  0  0  0  0  0  0
  -22.7895  -17.2886   60.6995 C   0  0  0  0  0  0  0  0  0  0  0  0
  -22.1241  -18.3461   60.5165 O   0  0  0  0  0  0  0  0  0  0  0  0
  -24.0803  -17.2572   60.2158 O   0  0  0  0  0  0  0  0  0  0  0  0
  -20.4439  -14.0182   61.6426 N   0  0  0  0  0  0  0  0  0  0  0  0
  -21.4981  -13.1049   61.9676 C   0  0  0  0  0  0  0  0  0  0  0  0
  -22.2473  -13.2620   62.9691 O   0  0  0  0  0  0  0  0  0  0  0  0
  -21.7777  -11.8933   61.1292 C   0  0  0  0  0  0  0  0  0  0  0  0
  -22.8984  -11.1502   61.6883 N   0  0  0  0  0  0  0  0  0  0  0  0
  -22.8754  -10.6173   63.0096 C   0  0  0  0  0  0  0  0  0  0  0  0
  -21.8445  -10.7937   63.7268 O   0  0  0  0  0  0  0  0  0  0  0  0
  -23.9859   -9.8628   63.6143 C   0  0  2  0  0  0  0  0  0  0  0  0
  -24.4948  -10.7042   64.7901 C   0  0  0  0  0  0  0  0  0  0  0  0
  -25.0711   -9.6863   62.6687 N   0  0  0  0  0  0  0  0  0  0  0  0
  -25.5913   -8.3588   62.5153 C   0  0  0  0  0  0  0  0  0  0  0  0
  -25.0655   -7.4716   63.2114 O   0  0  0  0  0  0  0  0  0  0  0  0
  -26.6096   -8.1695   61.6303 O   0  0  0  0  0  0  0  0  0  0  0  0
  -27.2139   -6.9346   61.3840 C   0  0  0  0  0  0  0  0  0  0  0  0
  -26.2894   -5.9041   60.8848 C   0  0  0  0  0  0  0  0  0  0  0  0
  -26.0464   -5.8691   59.5249 C   0  0  0  0  0  0  0  0  0  0  0  0
  -25.2008   -4.9207   58.9687 C   0  0  0  0  0  0  0  0  0  0  0  0
  -24.5678   -3.9742   59.7495 C   0  0  0  0  0  0  0  0  0  0  0  0
  -24.8132   -4.0107   61.1189 C   0  0  0  0  0  0  0  0  0  0  0  0
  -25.6610   -4.9643   61.6596 C   0  0  0  0  0  0  0  0  0  0  0  0
  -16.0982  -10.2868   64.3548 C   0  0  0  0  0  0  0  0  0  0  0  0
  -15.4348   -9.3387   64.8233 O   0  0  0  0  0  0  0  0  0  0  0  0
  -17.4974  -10.2846   64.6022 N   0  0  0  0  0  0  0  0  0  0  0  0
  -18.0393   -9.1981   65.3596 C   0  0  1  0  0  0  0  0  0  0  0  0
  -17.6274   -9.0566   66.7765 C   0  0  0  0  0  0  0  0  0  0  0  0
  -18.0100  -10.2647   67.5949 C   0  0  0  0  0  0  0  0  0  0  0  0
  -19.2400  -10.3144   68.2129 C   0  0  0  0  0  0  0  0  0  0  0  0
  -19.6840  -11.3691   68.9730 C   0  0  0  0  0  0  0  0  0  0  0  0
  -18.8316  -12.4426   69.1188 C   0  0  0  0  0  0  0  0  0  0  0  0
  -19.2330  -13.5458   69.8839 O   0  0  0  0  0  0  0  0  0  0  0  0
  -17.5903  -12.4204   68.5099 C   0  0  0  0  0  0  0  0  0  0  0  0
  -17.1598  -11.3409   67.7432 C   0  0  0  0  0  0  0  0  0  0  0  0
  -18.0434   -7.8884   64.6977 C   0  0  0  0  0  0  0  0  0  0  0  0
  -18.5040   -6.8876   65.3309 O   0  0  0  0  0  0  0  0  0  0  0  0
  -17.5717   -7.6314   63.3850 N   0  0  0  0  0  0  0  0  0  0  0  0
  -17.6551   -6.2733   62.8717 C   0  0  1  0  0  0  0  0  0  0  0  0
  -16.3795   -5.9348   62.1809 C   0  0  0  0  0  0  0  0  0  0  0  0
  -15.2101   -6.0200   63.1017 C   0  0  0  0  0  0  0  0  0  0  0  0
  -13.9645   -5.6569   62.3347 C   0  0  0  0  0  0  0  0  0  0  0  0
  -14.0257   -5.3454   61.1203 O   0  0  0  0  0  0  0  0  0  0  0  0
  -12.7761   -5.6913   63.0518 O   0  0  0  0  0  0  0  0  0  0  0  0
  -18.7386   -6.2503   61.8077 C   0  0  0  0  0  0  0  0  0  0  0  0
  -19.0172   -5.0099   61.1318 N   0  0  0  0  0  0  0  0  0  0  0  0
  -19.3810   -7.3056   61.5251 O   0  0  0  0  0  0  0  0  0  0  0  0
  1  2  1  0
  2  3  1  0
  2  4  1  0
  5  4  1  6
  5  6  1  0
  6  7  1  0
  7  8  2  0
  7  9  1  0
  9 10  1  6
  9 11  1  0
 11 12  1  0
 12 13  2  0
 12 14  1  0
 14 15  1  6
 15 16  1  0
 16 17  1  0
 17 18  2  0
 17 19  1  0
 14 20  1  0
 20 21  1  0
 21 22  2  0
 21 23  1  0
 23 24  1  0
 24 25  1  0
 25 26  2  0
 25 27  1  0
 27 28  1  1
 27 29  1  0
 29 30  1  0
 30 31  2  0
 30 32  1  0
 32 33  1  0
 33 34  1  0
 34 35  2  0
 35 36  1  0
 36 37  2  0
 37 38  1  0
 38 39  2  0
  5 40  1  0
 40 41  2  0
 40 42  1  0
 42 43  1  0
 43 44  1  1
 44 45  1  0
 45 46  2  0
 46 47  1  0
 47 48  2  0
 48 49  1  0
 48 50  1  0
 50 51  2  0
 43 52  1  0
 52 53  2  0
 52 54  1  0
 54 55  1  0
 55 56  1  6
 56 57  1  0
 57 58  1  0
 58 59  2  0
 58 60  1  0
 55 61  1  0
 61 62  1  0
 61 63  2  0
 39 34  1  0
 51 45  1  0
M  CHG  2  19  -1  60  -1
M  END
>  <shape_align_shape_tanimoto>  (1) 
0.25983817457733771

>  <shape_align_color_tanimoto>  (1) 
1.3714347459976855e-05

>  <metric>  (1) 
shape

>  <metric_score>  (1) 
0.260

>  <template_pid>  (1) 
5IZ6

>  <template_shape_score>  (1) 
0.260

>  <template_color_score>  (1) 
0.000

>  <template_combo_score>  (1) 
0.130

$$$$
5IZ6_color_pose
     RDKit          3D

 63 64  0  0  0  0  0  0  0  0999 V2000
  -18.9101  -14.2238   67.9576 C   0  0  0  0  0  0  0  0  0  0  0  0
  -17.5037  -13.7985   67.6330 C   0  0  0  0  0  0  0  0  0  0  0  0
  -16.6208  -15.0384   67.7147 C   0  0  0  0  0  0  0  0  0  0  0  0
  -16.9762  -12.7432   68.5411 C   0  0  0  0  0  0  0  0  0  0  0  0
  -17.6988  -11.4497   68.5619 C   0  0  2  0  0  0  0  0  0  0  0  0
  -19.0706  -11.4654   68.9532 N   0  0  0  0  0  0  0  0  0  0  0  0
  -20.2004  -11.0890   68.2433 C   0  0  0  0  0  0  0  0  0  0  0  0
  -20.0326  -10.6534   67.0295 O   0  0  0  0  0  0  0  0  0  0  0  0
  -21.6041  -11.1070   68.6618 C   0  0  2  0  0  0  0  0  0  0  0  0
  -22.0918  -12.5899   68.7593 C   0  0  0  0  0  0  0  0  0  0  0  0
  -22.4177  -10.4474   67.6624 N   0  0  0  0  0  0  0  0  0  0  0  0
  -23.8154  -10.5078   67.5504 C   0  0  0  0  0  0  0  0  0  0  0  0
  -24.4523  -11.2051   68.3540 O   0  0  0  0  0  0  0  0  0  0  0  0
  -24.4241   -9.7131   66.4372 C   0  0  2  0  0  0  0  0  0  0  0  0
  -24.8260   -8.3296   67.0073 C   0  0  0  0  0  0  0  0  0  0  0  0
  -23.6444   -7.5998   67.5540 C   0  0  0  0  0  0  0  0  0  0  0  0
  -23.9989   -6.2483   68.1020 C   0  0  0  0  0  0  0  0  0  0  0  0
  -25.1631   -5.8263   68.0771 O   0  0  0  0  0  0  0  0  0  0  0  0
  -22.9355   -5.5254   68.6282 O   0  0  0  0  0  0  0  0  0  0  0  0
  -25.6507  -10.2810   65.9073 N   0  0  0  0  0  0  0  0  0  0  0  0
  -25.5718  -10.6430   64.5372 C   0  0  0  0  0  0  0  0  0  0  0  0
  -24.4600  -10.4372   63.9403 O   0  0  0  0  0  0  0  0  0  0  0  0
  -26.6366  -11.2416   63.7022 C   0  0  0  0  0  0  0  0  0  0  0  0
  -26.0006  -11.4081   62.3590 N   0  0  0  0  0  0  0  0  0  0  0  0
  -25.5718  -10.2213   61.6926 C   0  0  0  0  0  0  0  0  0  0  0  0
  -25.7477   -9.0621   62.1914 O   0  0  0  0  0  0  0  0  0  0  0  0
  -24.8848  -10.2459   60.3705 C   0  0  2  0  0  0  0  0  0  0  0  0
  -25.6618   -9.4848   59.3360 C   0  0  0  0  0  0  0  0  0  0  0  0
  -24.6038  -11.5660   59.9145 N   0  0  0  0  0  0  0  0  0  0  0  0
  -23.2621  -12.0576   59.7965 C   0  0  0  0  0  0  0  0  0  0  0  0
  -22.3709  -11.1845   60.1325 O   0  0  0  0  0  0  0  0  0  0  0  0
  -22.8545  -13.2574   59.4008 O   0  0  0  0  0  0  0  0  0  0  0  0
  -21.5672  -13.7917   59.2843 C   0  0  0  0  0  0  0  0  0  0  0  0
  -20.6534  -13.1090   58.3715 C   0  0  0  0  0  0  0  0  0  0  0  0
  -19.7801  -12.0927   58.7718 C   0  0  0  0  0  0  0  0  0  0  0  0
  -18.9399  -11.5008   57.8595 C   0  0  0  0  0  0  0  0  0  0  0  0
  -18.9329  -11.8900   56.5272 C   0  0  0  0  0  0  0  0  0  0  0  0
  -19.7965  -12.9037   56.1030 C   0  0  0  0  0  0  0  0  0  0  0  0
  -20.6166  -13.4620   57.0577 C   0  0  0  0  0  0  0  0  0  0  0  0
  -17.3035  -10.5427   67.4587 C   0  0  0  0  0  0  0  0  0  0  0  0
  -16.3672  -10.9827   66.7089 O   0  0  0  0  0  0  0  0  0  0  0  0
  -17.8152   -9.2816   67.1447 N   0  0  0  0  0  0  0  0  0  0  0  0
  -17.3092   -8.5286   65.9670 C   0  0  1  0  0  0  0  0  0  0  0  0
  -18.5073   -8.2674   65.1323 C   0  0  0  0  0  0  0  0  0  0  0  0
  -18.3268   -7.5410   63.8811 C   0  0  0  0  0  0  0  0  0  0  0  0
  -18.0083   -8.3003   62.7476 C   0  0  0  0  0  0  0  0  0  0  0  0
  -17.8691   -7.6213   61.5308 C   0  0  0  0  0  0  0  0  0  0  0  0
  -18.0352   -6.2671   61.4398 C   0  0  0  0  0  0  0  0  0  0  0  0
  -17.9061   -5.5516   60.2438 O   0  0  0  0  0  0  0  0  0  0  0  0
  -18.3460   -5.5671   62.5786 C   0  0  0  0  0  0  0  0  0  0  0  0
  -18.4982   -6.1962   63.8233 C   0  0  0  0  0  0  0  0  0  0  0  0
  -16.6562   -7.3326   66.5100 C   0  0  0  0  0  0  0  0  0  0  0  0
  -16.7640   -7.1376   67.7686 O   0  0  0  0  0  0  0  0  0  0  0  0
  -15.9145   -6.3724   65.7936 N   0  0  0  0  0  0  0  0  0  0  0  0
  -15.3106   -5.2368   66.4604 C   0  0  1  0  0  0  0  0  0  0  0  0
  -13.8074   -5.3312   66.5362 C   0  0  0  0  0  0  0  0  0  0  0  0
  -13.2692   -6.5110   67.2556 C   0  0  0  0  0  0  0  0  0  0  0  0
  -13.6750   -6.5951   68.6687 C   0  0  0  0  0  0  0  0  0  0  0  0
  -14.4115   -5.7700   69.2645 O   0  0  0  0  0  0  0  0  0  0  0  0
  -13.2157   -7.6686   69.4354 O   0  0  0  0  0  0  0  0  0  0  0  0
  -15.6817   -3.9239   65.8243 C   0  0  0  0  0  0  0  0  0  0  0  0
  -16.4701   -3.8244   64.6658 N   0  0  0  0  0  0  0  0  0  0  0  0
  -15.2719   -2.8454   66.3402 O   0  0  0  0  0  0  0  0  0  0  0  0
  1  2  1  0
  2  3  1  0
  2  4  1  0
  5  4  1  6
  5  6  1  0
  6  7  1  0
  7  8  2  0
  7  9  1  0
  9 10  1  6
  9 11  1  0
 11 12  1  0
 12 13  2  0
 12 14  1  0
 14 15  1  1
 15 16  1  0
 16 17  1  0
 17 18  2  0
 17 19  1  0
 14 20  1  0
 20 21  1  0
 21 22  2  0
 21 23  1  0
 23 24  1  0
 24 25  1  0
 25 26  2  0
 25 27  1  0
 27 28  1  6
 27 29  1  0
 29 30  1  0
 30 31  2  0
 30 32  1  0
 32 33  1  0
 33 34  1  0
 34 35  2  0
 35 36  1  0
 36 37  2  0
 37 38  1  0
 38 39  2  0
  5 40  1  0
 40 41  2  0
 40 42  1  0
 42 43  1  0
 43 44  1  6
 44 45  1  0
 45 46  2  0
 46 47  1  0
 47 48  2  0
 48 49  1  0
 48 50  1  0
 50 51  2  0
 43 52  1  0
 52 53  2  0
 52 54  1  0
 54 55  1  0
 55 56  1  6
 56 57  1  0
 57 58  1  0
 58 59  2  0
 58 60  1  0
 55 61  1  0
 61 62  1  0
 61 63  2  0
 39 34  1  0
 51 45  1  0
M  CHG  2  19  -1  60  -1
M  END
>  <shape_align_shape_tanimoto>  (2) 
0.23026669084763085

>  <shape_align_color_tanimoto>  (2) 
0.054528379141161494

>  <metric>  (2) 
color

>  <metric_score>  (2) 
0.055

>  <template_pid>  (2) 
5IZ6

>  <template_shape_score>  (2) 
0.230

>  <template_color_score>  (2) 
0.055

>  <template_combo_score>  (2) 
0.142

$$$$
5IZ6_combo_pose
     RDKit          3D

 63 64  0  0  0  0  0  0  0  0999 V2000
  -20.6555  -11.8829   63.6801 C   0  0  0  0  0  0  0  0  0  0  0  0
  -19.9868  -12.6666   62.6252 C   0  0  0  0  0  0  0  0  0  0  0  0
  -20.5574  -12.3352   61.2349 C   0  0  0  0  0  0  0  0  0  0  0  0
  -18.5268  -12.6455   62.6308 C   0  0  0  0  0  0  0  0  0  0  0  0
  -17.7293  -11.4191   62.4476 C   0  0  2  0  0  0  0  0  0  0  0  0
  -16.3063  -11.9157   62.4630 N   0  0  0  0  0  0  0  0  0  0  0  0
  -15.4972  -11.7120   61.3140 C   0  0  0  0  0  0  0  0  0  0  0  0
  -15.9828  -11.1145   60.2874 O   0  0  0  0  0  0  0  0  0  0  0  0
  -14.0928  -12.1433   61.1869 C   0  0  2  0  0  0  0  0  0  0  0  0
  -14.1183  -13.2966   60.1573 C   0  0  0  0  0  0  0  0  0  0  0  0
  -13.6192  -12.7432   62.4022 N   0  0  0  0  0  0  0  0  0  0  0  0
  -12.3244  -12.3501   62.8555 C   0  0  0  0  0  0  0  0  0  0  0  0
  -11.6814  -11.5064   62.1676 O   0  0  0  0  0  0  0  0  0  0  0  0
  -11.6929  -12.8797   64.0892 C   0  0  2  0  0  0  0  0  0  0  0  0
  -10.4662  -13.6590   63.6108 C   0  0  0  0  0  0  0  0  0  0  0  0
   -9.6804  -14.2806   64.7095 C   0  0  0  0  0  0  0  0  0  0  0  0
   -9.1423  -13.3026   65.6525 C   0  0  0  0  0  0  0  0  0  0  0  0
   -9.2663  -12.0546   65.5674 O   0  0  0  0  0  0  0  0  0  0  0  0
   -8.4263  -13.7747   66.7482 O   0  0  0  0  0  0  0  0  0  0  0  0
  -12.6393  -13.8092   64.7261 N   0  0  0  0  0  0  0  0  0  0  0  0
  -12.9678  -13.6385   66.0830 C   0  0  0  0  0  0  0  0  0  0  0  0
  -12.4284  -12.6714   66.7267 O   0  0  0  0  0  0  0  0  0  0  0  0
  -13.8976  -14.4859   66.8513 C   0  0  0  0  0  0  0  0  0  0  0  0
  -14.4800  -15.5763   66.1412 N   0  0  0  0  0  0  0  0  0  0  0  0
  -13.7062  -16.6397   65.5945 C   0  0  0  0  0  0  0  0  0  0  0  0
  -12.4528  -16.7092   65.7006 O   0  0  0  0  0  0  0  0  0  0  0  0
  -14.4369  -17.7059   64.8679 C   0  0  2  0  0  0  0  0  0  0  0  0
  -13.9100  -17.8602   63.4435 C   0  0  0  0  0  0  0  0  0  0  0  0
  -15.8513  -17.4752   64.7969 N   0  0  0  0  0  0  0  0  0  0  0  0
  -16.8532  -18.3421   65.2657 C   0  0  0  0  0  0  0  0  0  0  0  0
  -16.5119  -19.4241   65.8000 O   0  0  0  0  0  0  0  0  0  0  0  0
  -18.1704  -17.9674   65.1189 O   0  0  0  0  0  0  0  0  0  0  0  0
  -19.2344  -18.7872   65.5647 C   0  0  0  0  0  0  0  0  0  0  0  0
  -20.5561  -18.1627   65.2949 C   0  0  0  0  0  0  0  0  0  0  0  0
  -21.1377  -17.3454   66.2412 C   0  0  0  0  0  0  0  0  0  0  0  0
  -22.3576  -16.7627   65.9965 C   0  0  0  0  0  0  0  0  0  0  0  0
  -23.0528  -16.9479   64.8382 C   0  0  0  0  0  0  0  0  0  0  0  0
  -22.4818  -17.7670   63.8760 C   0  0  0  0  0  0  0  0  0  0  0  0
  -21.2562  -18.3529   64.1209 C   0  0  0  0  0  0  0  0  0  0  0  0
  -17.7750  -10.3579   63.4694 C   0  0  0  0  0  0  0  0  0  0  0  0
  -18.7733   -9.6271   63.7045 O   0  0  0  0  0  0  0  0  0  0  0  0
  -16.6250  -10.0559   64.3147 N   0  0  0  0  0  0  0  0  0  0  0  0
  -16.6203   -9.0354   65.3012 C   0  0  1  0  0  0  0  0  0  0  0  0
  -16.3465   -7.6520   64.8419 C   0  0  0  0  0  0  0  0  0  0  0  0
  -17.2512   -7.0807   63.8507 C   0  0  0  0  0  0  0  0  0  0  0  0
  -18.3927   -6.3604   64.1198 C   0  0  0  0  0  0  0  0  0  0  0  0
  -19.1791   -5.8582   63.0778 C   0  0  0  0  0  0  0  0  0  0  0  0
  -18.8271   -6.0741   61.7678 C   0  0  0  0  0  0  0  0  0  0  0  0
  -19.5908   -5.5858   60.7100 O   0  0  0  0  0  0  0  0  0  0  0  0
  -17.6794   -6.7982   61.4754 C   0  0  0  0  0  0  0  0  0  0  0  0
  -16.9249   -7.2801   62.5010 C   0  0  0  0  0  0  0  0  0  0  0  0
  -17.7223   -9.0798   66.3083 C   0  0  0  0  0  0  0  0  0  0  0  0
  -17.8430   -8.0040   66.9924 O   0  0  0  0  0  0  0  0  0  0  0  0
  -18.5657  -10.2038   66.5037 N   0  0  0  0  0  0  0  0  0  0  0  0
  -19.6526  -10.3223   67.4014 C   0  0  1  0  0  0  0  0  0  0  0  0
  -19.4133  -10.7512   68.7952 C   0  0  0  0  0  0  0  0  0  0  0  0
  -18.8397  -12.0845   69.0574 C   0  0  0  0  0  0  0  0  0  0  0  0
  -17.4979  -12.3109   68.5563 C   0  0  0  0  0  0  0  0  0  0  0  0
  -16.7230  -11.5074   68.0181 O   0  0  0  0  0  0  0  0  0  0  0  0
  -16.9921  -13.6248   68.6950 O   0  0  0  0  0  0  0  0  0  0  0  0
  -20.4650   -9.0596   67.4598 C   0  0  0  0  0  0  0  0  0  0  0  0
  -20.3322   -7.9484   66.6287 N   0  0  0  0  0  0  0  0  0  0  0  0
  -21.3565   -9.0265   68.3584 O   0  0  0  0  0  0  0  0  0  0  0  0
  1  2  1  0
  2  3  1  0
  2  4  1  0
  5  4  1  1
  5  6  1  0
  6  7  1  0
  7  8  2  0
  7  9  1  0
  9 10  1  6
  9 11  1  0
 11 12  1  0
 12 13  2  0
 12 14  1  0
 14 15  1  6
 15 16  1  0
 16 17  1  0
 17 18  2  0
 17 19  1  0
 14 20  1  0
 20 21  1  0
 21 22  2  0
 21 23  1  0
 23 24  1  0
 24 25  1  0
 25 26  2  0
 25 27  1  0
 27 28  1  6
 27 29  1  0
 29 30  1  0
 30 31  2  0
 30 32  1  0
 32 33  1  0
 33 34  1  0
 34 35  2  0
 35 36  1  0
 36 37  2  0
 37 38  1  0
 38 39  2  0
  5 40  1  0
 40 41  2  0
 40 42  1  0
 42 43  1  0
 43 44  1  6
 44 45  1  0
 45 46  2  0
 46 47  1  0
 47 48  2  0
 48 49  1  0
 48 50  1  0
 50 51  2  0
 43 52  1  0
 52 53  2  0
 52 54  1  0
 54 55  1  0
 55 56  1  1
 56 57  1  0
 57 58  1  0
 58 59  2  0
 58 60  1  0
 55 61  1  0
 61 62  1  0
 61 63  2  0
 39 34  1  0
 51 45  1  0
M  CHG  2  19  -1  60  -1
M  END
>  <shape_align_shape_tanimoto>  (3) 
0.25049421559147456

>  <shape_align_color_tanimoto>  (3) 
0.053157186496793414

>  <metric>  (3) 
combo

>  <metric_score>  (3) 
0.152

>  <template_pid>  (3) 
5IZ6

>  <template_shape_score>  (3) 
0.250

>  <template_color_score>  (3) 
0.053

>  <template_combo_score>  (3) 
0.152

$$$$
