3VBG_shape_pose
     RDKit          3D

 28 31  0  0  0  0  0  0  0  0999 V2000
   15.7148    7.7885    5.2969 C   0  0  0  0  0  0  0  0  0  0  0  0
   16.8427    8.5213    4.6484 C   0  0  0  0  0  0  0  0  0  0  0  0
   17.6522    9.2943    5.4464 C   0  0  0  0  0  0  0  0  0  0  0  0
   17.4068    9.4598    7.1816 Cl  0  0  0  0  0  0  0  0  0  0  0  0
   18.7088    9.9772    4.8537 C   0  0  0  0  0  0  0  0  0  0  0  0
   18.8755    9.8336    3.4945 C   0  0  0  0  0  0  0  0  0  0  0  0
   18.0689    9.0625    2.6946 C   0  0  0  0  0  0  0  0  0  0  0  0
   18.0413    8.7804    1.3234 C   0  0  0  0  0  0  0  0  0  0  0  0
   19.0240    9.3381    0.4018 C   0  0  0  0  0  0  0  0  0  0  0  0
   18.6473    9.8782   -0.7453 C   0  0  0  0  0  0  0  0  0  0  0  0
   17.3251   10.0112   -1.2627 N   0  0  0  0  0  0  0  0  0  0  0  0
   17.3774   10.6803   -2.5241 C   0  0  0  0  0  0  0  0  0  0  0  0
   16.4065   10.9832   -3.2928 O   0  0  0  0  0  0  0  0  0  0  0  0
   18.7494   10.9760   -2.8135 N   0  0  0  0  0  0  0  0  0  0  0  0
   19.3234   11.6463   -3.9527 C   0  0  0  0  0  0  0  0  0  0  0  0
   19.6662   10.7664   -5.0651 C   0  0  0  0  0  0  0  0  0  0  0  0
   18.7889   10.4760   -6.1223 C   0  0  0  0  0  0  0  0  0  0  0  0
   19.2009    9.6228   -7.1449 C   0  0  0  0  0  0  0  0  0  0  0  0
   20.4564    9.0553   -7.1425 C   0  0  0  0  0  0  0  0  0  0  0  0
   20.8744    8.2109   -8.1438 F   0  0  0  0  0  0  0  0  0  0  0  0
   21.3159    9.3391   -6.1075 C   0  0  0  0  0  0  0  0  0  0  0  0
   22.5724    8.8295   -6.0126 F   0  0  0  0  0  0  0  0  0  0  0  0
   20.9423   10.1903   -5.0599 C   0  0  0  0  0  0  0  0  0  0  0  0
   19.5361   10.4794   -1.7131 C   0  0  0  0  0  0  0  0  0  0  0  0
   20.7679   10.5578   -1.6171 O   0  0  0  0  0  0  0  0  0  0  0  0
   16.9819    7.9386    1.1094 C   0  0  0  0  0  0  0  0  0  0  0  0
   16.3678    7.7033    2.3001 N   0  0  0  0  0  0  0  0  0  0  0  0
   17.0120    8.3784    3.2840 C   0  0  0  0  0  0  0  0  0  0  0  0
  1  2  1  0
  2  3  2  0
  3  4  1  0
  3  5  1  0
  5  6  2  0
  6  7  1  0
  7  8  1  0
  8  9  1  0
  9 10  2  0
 10 11  1  0
 11 12  1  0
 12 13  2  0
 12 14  1  0
 14 15  1  0
 15 16  1  0
 16 17  2  0
 17 18  1  0
 18 19  2  0
 19 20  1  0
 19 21  1  0
 21 22  1  0
 21 23  2  0
 14 24  1  0
 24 25  2  0
  8 26  2  0
 26 27  1  0
 27 28  1  0
 28  2  1  0
 28  7  2  0
 24 10  1  0
 23 16  1  0
M  END
>  <shape_align_shape_tanimoto>  (1) 
0.33559933674757708

>  <shape_align_color_tanimoto>  (1) 
0.010248452299119668

>  <metric>  (1) 
shape

>  <metric_score>  (1) 
0.336

>  <template_pid>  (1) 
3VBG

>  <template_shape_score>  (1) 
0.336

>  <template_color_score>  (1) 
0.010

>  <template_combo_score>  (1) 
0.173

$$$$
3VBG_color_pose
     RDKit          3D

 28 31  0  0  0  0  0  0  0  0999 V2000
   18.0701   10.3338   -8.4041 C   0  0  0  0  0  0  0  0  0  0  0  0
   17.8795    9.9052   -6.9715 C   0  0  0  0  0  0  0  0  0  0  0  0
   16.6870    9.3085   -6.6216 C   0  0  0  0  0  0  0  0  0  0  0  0
   15.3855    9.0153   -7.7426 Cl  0  0  0  0  0  0  0  0  0  0  0  0
   16.4960    8.9130   -5.3054 C   0  0  0  0  0  0  0  0  0  0  0  0
   17.5012    9.1280   -4.3891 C   0  0  0  0  0  0  0  0  0  0  0  0
   18.7117    9.7314   -4.7334 C   0  0  0  0  0  0  0  0  0  0  0  0
   19.8523   10.0352   -4.0038 C   0  0  0  0  0  0  0  0  0  0  0  0
   20.1247    9.8502   -2.5866 C   0  0  0  0  0  0  0  0  0  0  0  0
   19.3456   10.2894   -1.6151 C   0  0  0  0  0  0  0  0  0  0  0  0
   18.1194   11.0173   -1.7804 N   0  0  0  0  0  0  0  0  0  0  0  0
   17.5557   11.3091   -0.5092 C   0  0  0  0  0  0  0  0  0  0  0  0
   16.4826   11.9343   -0.3088 O   0  0  0  0  0  0  0  0  0  0  0  0
   18.3996   10.7799    0.5025 N   0  0  0  0  0  0  0  0  0  0  0  0
   18.2652   10.8277    1.9451 C   0  0  0  0  0  0  0  0  0  0  0  0
   17.4834    9.7188    2.5083 C   0  0  0  0  0  0  0  0  0  0  0  0
   16.1125    9.8957    2.6447 C   0  0  0  0  0  0  0  0  0  0  0  0
   15.2697    8.9489    3.1504 C   0  0  0  0  0  0  0  0  0  0  0  0
   15.8073    7.7400    3.5522 C   0  0  0  0  0  0  0  0  0  0  0  0
   14.9625    6.8039    4.0530 F   0  0  0  0  0  0  0  0  0  0  0  0
   17.1597    7.5270    3.4329 C   0  0  0  0  0  0  0  0  0  0  0  0
   17.6700    6.3389    3.8306 F   0  0  0  0  0  0  0  0  0  0  0  0
   18.0017    8.5109    2.9126 C   0  0  0  0  0  0  0  0  0  0  0  0
   19.5095   10.1472   -0.1618 C   0  0  0  0  0  0  0  0  0  0  0  0
   20.4890    9.5544    0.3406 O   0  0  0  0  0  0  0  0  0  0  0  0
   20.7387   10.6236   -4.9164 C   0  0  0  0  0  0  0  0  0  0  0  0
   20.1374   10.6619   -6.1291 N   0  0  0  0  0  0  0  0  0  0  0  0
   18.9034   10.1280   -6.0567 C   0  0  0  0  0  0  0  0  0  0  0  0
  1  2  1  0
  2  3  2  0
  3  4  1  0
  3  5  1  0
  5  6  2  0
  6  7  1  0
  7  8  1  0
  8  9  1  0
  9 10  2  0
 10 11  1  0
 11 12  1  0
 12 13  2  0
 12 14  1  0
 14 15  1  0
 15 16  1  0
 16 17  2  0
 17 18  1  0
 18 19  2  0
 19 20  1  0
 19 21  1  0
 21 22  1  0
 21 23  2  0
 14 24  1  0
 24 25  2  0
  8 26  2  0
 26 27  1  0
 27 28  1  0
 28  2  1  0
 28  7  2  0
 24 10  1  0
 23 16  1  0
M  END
>  <shape_align_shape_tanimoto>  (2) 
0.28415455368844533

>  <shape_align_color_tanimoto>  (2) 
0.041081918997505788

>  <metric>  (2) 
color

>  <metric_score>  (2) 
0.041

>  <template_pid>  (2) 
3VBG

>  <template_shape_score>  (2) 
0.284

>  <template_color_score>  (2) 
0.041

>  <template_combo_score>  (2) 
0.163

$$$$
3VBG_combo_pose
     RDKit          3D

 28 31  0  0  0  0  0  0  0  0999 V2000
   21.7974    8.9891   -7.1563 C   0  0  0  0  0  0  0  0  0  0  0  0
   20.7450    9.6602   -6.3572 C   0  0  0  0  0  0  0  0  0  0  0  0
   20.0168   10.6768   -6.9380 C   0  0  0  0  0  0  0  0  0  0  0  0
   20.3653   11.1365   -8.6019 Cl  0  0  0  0  0  0  0  0  0  0  0  0
   19.0268   11.3290   -6.2277 C   0  0  0  0  0  0  0  0  0  0  0  0
   18.7975   10.9279   -4.9276 C   0  0  0  0  0  0  0  0  0  0  0  0
   19.4997    9.9188   -4.3081 C   0  0  0  0  0  0  0  0  0  0  0  0
   19.4473    9.3492   -3.0291 C   0  0  0  0  0  0  0  0  0  0  0  0
   18.5016    9.7997   -2.0330 C   0  0  0  0  0  0  0  0  0  0  0  0
   18.7679    9.9617   -0.7518 C   0  0  0  0  0  0  0  0  0  0  0  0
   20.0071    9.7365   -0.0921 N   0  0  0  0  0  0  0  0  0  0  0  0
   19.8101   10.0365    1.2720 C   0  0  0  0  0  0  0  0  0  0  0  0
   20.6967    9.9505    2.1633 O   0  0  0  0  0  0  0  0  0  0  0  0
   18.4613   10.4548    1.5138 N   0  0  0  0  0  0  0  0  0  0  0  0
   17.8635   10.8505    2.7902 C   0  0  0  0  0  0  0  0  0  0  0  0
   17.3236    9.5719    3.3704 C   0  0  0  0  0  0  0  0  0  0  0  0
   18.0846    8.7641    4.1899 C   0  0  0  0  0  0  0  0  0  0  0  0
   17.4854    7.5985    4.6745 C   0  0  0  0  0  0  0  0  0  0  0  0
   16.1777    7.2750    4.3398 C   0  0  0  0  0  0  0  0  0  0  0  0
   15.5798    6.1387    4.8063 F   0  0  0  0  0  0  0  0  0  0  0  0
   15.4201    8.1016    3.5098 C   0  0  0  0  0  0  0  0  0  0  0  0
   14.1426    7.7988    3.1741 F   0  0  0  0  0  0  0  0  0  0  0  0
   16.0191    9.2666    3.0253 C   0  0  0  0  0  0  0  0  0  0  0  0
   17.8175   10.4101    0.2717 C   0  0  0  0  0  0  0  0  0  0  0  0
   16.6211   10.7060    0.0681 O   0  0  0  0  0  0  0  0  0  0  0  0
   20.4036    8.3854   -3.0311 C   0  0  0  0  0  0  0  0  0  0  0  0
   21.0172    8.3495   -4.2276 N   0  0  0  0  0  0  0  0  0  0  0  0
   20.4798    9.2913   -5.0492 C   0  0  0  0  0  0  0  0  0  0  0  0
  1  2  1  0
  2  3  2  0
  3  4  1  0
  3  5  1  0
  5  6  2  0
  6  7  1  0
  7  8  1  0
  8  9  1  0
  9 10  2  0
 10 11  1  0
 11 12  1  0
 12 13  2  0
 12 14  1  0
 14 15  1  0
 15 16  1  0
 16 17  2  0
 17 18  1  0
 18 19  2  0
 19 20  1  0
 19 21  1  0
 21 22  1  0
 21 23  2  0
 14 24  1  0
 24 25  2  0
  8 26  2  0
 26 27  1  0
 27 28  1  0
 28  2  1  0
 28  7  2  0
 24 10  1  0
 23 16  1  0
M  END
>  <shape_align_shape_tanimoto>  (3) 
0.32152007547487044

>  <shape_align_color_tanimoto>  (3) 
0.039277827643573703

>  <metric>  (3) 
combo

>  <metric_score>  (3) 
0.180

>  <template_pid>  (3) 
3VBG

>  <template_shape_score>  (3) 
0.322

>  <template_color_score>  (3) 
0.039

>  <template_combo_score>  (3) 
0.180

$$$$
