5MKZ_shape_pose
     RDKit          3D

 17 18  0  0  0  0  0  0  0  0999 V2000
   33.4733    2.3184  102.5832 C   0  0  0  0  0  0  0  0  0  0  0  0
   32.2612    2.9638  103.2657 C   0  0  0  0  0  0  0  0  0  0  0  0
   31.0699    2.3509  103.2422 C   0  0  0  0  0  0  0  0  0  0  0  0
   30.0064    3.0168  103.8953 C   0  0  0  0  0  0  0  0  0  0  0  0
   30.7673    4.4979  104.5161 S   0  0  0  0  0  0  0  0  0  0  0  0
   32.3934    4.1517  103.8910 C   0  0  0  0  0  0  0  0  0  0  0  0
   33.4172    5.1221  104.1611 C   0  0  0  0  0  0  0  0  0  0  0  0
   34.7460    4.9283  103.7322 N   0  0  0  0  0  0  0  0  0  0  0  0
   35.7032    5.9579  104.0556 C   0  0  0  0  0  0  0  0  0  0  0  0
   35.3404    7.0925  104.7606 C   0  0  0  0  0  0  0  0  0  0  0  0
   36.2438    8.0569  105.0633 N   0  0  0  0  0  0  0  0  0  0  0  0
   37.5147    7.9616  104.7007 N   0  0  0  0  0  0  0  0  0  0  0  0
   38.4791    9.0152  105.0373 C   0  0  0  0  0  0  0  0  0  0  0  0
   37.9280    6.8727  104.0081 C   0  0  0  0  0  0  0  0  0  0  0  0
   39.1315    6.7423  103.6430 O   0  0  0  0  0  0  0  0  0  0  0  0
   37.0275    5.8671  103.6822 C   0  0  0  0  0  0  0  0  0  0  0  0
   37.5947    4.4790  102.7892 Cl  0  0  0  0  0  0  0  0  0  0  0  0
  1  2  1  0
  2  3  1  0
  3  4  2  0
  4  5  1  0
  5  6  1  0
  6  7  1  0
  7  8  1  0
  8  9  1  0
  9 10  1  0
 10 11  2  0
 11 12  1  0
 12 13  1  0
 12 14  1  0
 14 15  2  0
 14 16  1  0
 16 17  1  0
  6  2  2  0
 16  9  2  0
M  END
>  <shape_align_shape_tanimoto>  (1) 
0.54361326738069993

>  <shape_align_color_tanimoto>  (1) 
0.0094256834398242263

>  <metric>  (1) 
shape

>  <metric_score>  (1) 
0.544

>  <template_pid>  (1) 
5MKZ

>  <template_shape_score>  (1) 
0.544

>  <template_color_score>  (1) 
0.009

>  <template_combo_score>  (1) 
0.277

$$$$
5MKZ_color_pose
     RDKit          3D

 17 18  0  0  0  0  0  0  0  0999 V2000
   38.4933    8.3640  104.2425 C   0  0  0  0  0  0  0  0  0  0  0  0
   38.7709    6.8572  104.1859 C   0  0  0  0  0  0  0  0  0  0  0  0
   39.5451    6.2566  105.1032 C   0  0  0  0  0  0  0  0  0  0  0  0
   39.8201    4.9290  104.9000 C   0  0  0  0  0  0  0  0  0  0  0  0
   38.9334    4.5236  103.3293 S   0  0  0  0  0  0  0  0  0  0  0  0
   38.3157    6.1169  103.1340 C   0  0  0  0  0  0  0  0  0  0  0  0
   37.3406    6.3669  102.0459 C   0  0  0  0  0  0  0  0  0  0  0  0
   36.1523    5.6115  102.3224 N   0  0  0  0  0  0  0  0  0  0  0  0
   35.2425    5.6290  103.3622 C   0  0  0  0  0  0  0  0  0  0  0  0
   35.2079    6.4383  104.4623 C   0  0  0  0  0  0  0  0  0  0  0  0
   34.2459    6.3413  105.4201 N   0  0  0  0  0  0  0  0  0  0  0  0
   33.2724    5.4378  105.3374 N   0  0  0  0  0  0  0  0  0  0  0  0
   32.3168    5.3672  106.4257 C   0  0  0  0  0  0  0  0  0  0  0  0
   33.2342    4.6134  104.2950 C   0  0  0  0  0  0  0  0  0  0  0  0
   32.3068    3.7541  104.2120 O   0  0  0  0  0  0  0  0  0  0  0  0
   34.1876    4.6848  103.3122 C   0  0  0  0  0  0  0  0  0  0  0  0
   34.0564    3.5446  101.9873 Cl  0  0  0  0  0  0  0  0  0  0  0  0
  1  2  1  0
  2  3  1  0
  3  4  2  0
  4  5  1  0
  5  6  1  0
  6  7  1  0
  7  8  1  0
  8  9  1  0
  9 10  1  0
 10 11  2  0
 11 12  1  0
 12 13  1  0
 12 14  1  0
 14 15  2  0
 14 16  1  0
 16 17  1  0
  6  2  2  0
 16  9  2  0
M  END
>  <shape_align_shape_tanimoto>  (2) 
0.4539897957267946

>  <shape_align_color_tanimoto>  (2) 
0.10111096096393767

>  <metric>  (2) 
color

>  <metric_score>  (2) 
0.101

>  <template_pid>  (2) 
5MKZ

>  <template_shape_score>  (2) 
0.454

>  <template_color_score>  (2) 
0.101

>  <template_combo_score>  (2) 
0.278

$$$$
5MKZ_combo_pose
     RDKit          3D

 17 18  0  0  0  0  0  0  0  0999 V2000
   38.1555    4.0525  102.8223 C   0  0  0  0  0  0  0  0  0  0  0  0
   38.6627    5.2388  103.6327 C   0  0  0  0  0  0  0  0  0  0  0  0
   39.8175    5.1952  104.3031 C   0  0  0  0  0  0  0  0  0  0  0  0
   40.2359    6.2954  105.0047 C   0  0  0  0  0  0  0  0  0  0  0  0
   38.9403    7.5111  104.7326 S   0  0  0  0  0  0  0  0  0  0  0  0
   37.9233    6.3929  103.6674 C   0  0  0  0  0  0  0  0  0  0  0  0
   36.6733    6.9092  103.1598 C   0  0  0  0  0  0  0  0  0  0  0  0
   35.4998    6.5127  103.8595 N   0  0  0  0  0  0  0  0  0  0  0  0
   34.6548    5.4272  103.6521 C   0  0  0  0  0  0  0  0  0  0  0  0
   34.7455    4.5027  102.6345 C   0  0  0  0  0  0  0  0  0  0  0  0
   33.8668    3.4913  102.4735 N   0  0  0  0  0  0  0  0  0  0  0  0
   32.8353    3.2912  103.2753 N   0  0  0  0  0  0  0  0  0  0  0  0
   31.8917    2.2194  103.1139 C   0  0  0  0  0  0  0  0  0  0  0  0
   32.6899    4.1659  104.2947 C   0  0  0  0  0  0  0  0  0  0  0  0
   31.7119    4.0000  105.0780 O   0  0  0  0  0  0  0  0  0  0  0  0
   33.5519    5.2172  104.5126 C   0  0  0  0  0  0  0  0  0  0  0  0
   33.2801    6.2949  105.8568 Cl  0  0  0  0  0  0  0  0  0  0  0  0
  1  2  1  0
  2  3  1  0
  3  4  2  0
  4  5  1  0
  5  6  1  0
  6  7  1  0
  7  8  1  0
  8  9  1  0
  9 10  1  0
 10 11  2  0
 11 12  1  0
 12 13  1  0
 12 14  1  0
 14 15  2  0
 14 16  1  0
 16 17  1  0
  6  2  2  0
 16  9  2  0
M  END
>  <shape_align_shape_tanimoto>  (3) 
0.48281840356202749

>  <shape_align_color_tanimoto>  (3) 
0.091746340322693562

>  <metric>  (3) 
combo

>  <metric_score>  (3) 
0.287

>  <template_pid>  (3) 
5MKZ

>  <template_shape_score>  (3) 
0.483

>  <template_color_score>  (3) 
0.092

>  <template_combo_score>  (3) 
0.287

$$$$
