3M94_shape_pose
     RDKit          3D

 31 33  0  0  0  0  0  0  0  0999 V2000
   -4.8500   26.3262   78.8381 C   0  0  0  0  0  0  0  0  0  0  0  0
   -5.3844   26.1638   77.4823 N   0  0  0  0  0  0  0  0  0  0  0  0
   -6.2915   25.0793   77.1569 C   0  0  0  0  0  0  0  0  0  0  0  0
   -5.0011   27.0910   76.4736 C   0  0  0  0  0  0  0  0  0  0  0  0
   -5.4890   26.9542   75.2082 N   0  0  0  0  0  0  0  0  0  0  0  0
   -5.1508   27.8084   74.2303 C   0  0  0  0  0  0  0  0  0  0  0  0
   -5.6041   27.6764   73.0668 O   0  0  0  0  0  0  0  0  0  0  0  0
   -4.2893   28.8299   74.5587 C   0  0  0  0  0  0  0  0  0  0  0  0
   -3.7685   29.0094   75.8269 C   0  0  0  0  0  0  0  0  0  0  0  0
   -4.1627   28.1004   76.7562 N   0  0  0  0  0  0  0  0  0  0  0  0
   -2.9627   30.0877   75.8392 N   0  0  0  0  0  0  0  0  0  0  0  0
   -2.2422   30.5813   76.9974 C   0  0  2  0  0  0  0  0  0  0  0  0
   -1.5091   31.6839   76.5865 O   0  0  0  0  0  0  0  0  0  0  0  0
   -0.2078   31.3576   76.3671 C   0  0  2  0  0  0  0  0  0  0  0  0
    0.4309   31.8862   75.1342 C   0  0  0  0  0  0  0  0  0  0  0  0
    1.7710   31.4271   75.1161 O   0  0  0  0  0  0  0  0  0  0  0  0
    2.4671   32.0472   73.7025 P   0  0  2  0  0  5  0  0  0  0  0  0
    1.3792   32.0922   72.6543 O   0  0  0  0  0  0  0  0  0  0  0  0
    3.6964   31.0231   73.1827 O   0  0  0  0  0  0  0  0  0  0  0  0
    3.0710   33.6044   73.9388 O   0  0  0  0  0  0  0  0  0  0  0  0
    3.9971   33.7094   75.3456 P   0  0  0  0  0  0  0  0  0  0  0  0
    4.9937   32.5941   75.4843 O   0  0  0  0  0  0  0  0  0  0  0  0
    4.8264   35.2017   75.2738 O   0  0  0  0  0  0  0  0  0  0  0  0
    2.9914   33.7464   76.7109 O   0  0  0  0  0  0  0  0  0  0  0  0
   -0.1169   29.8294   76.4544 C   0  0  1  0  0  0  0  0  0  0  0  0
    1.1220   29.4182   76.9413 O   0  0  0  0  0  0  0  0  0  0  0  0
   -1.2061   29.6499   77.5234 C   0  0  1  0  0  0  0  0  0  0  0  0
   -0.6587   30.2318   78.6733 O   0  0  0  0  0  0  0  0  0  0  0  0
   -2.9947   30.5620   74.5805 C   0  0  0  0  0  0  0  0  0  0  0  0
   -3.7864   29.8185   73.7986 N   0  0  0  0  0  0  0  0  0  0  0  0
   -4.0797   30.0101   72.3720 C   0  0  0  0  0  0  0  0  0  0  0  0
  1  2  1  0
  2  3  1  0
  2  4  1  0
  4  5  2  0
  5  6  1  0
  6  7  2  0
  6  8  1  0
  8  9  2  0
  9 10  1  0
  9 11  1  0
 12 11  1  6
 12 13  1  0
 13 14  1  0
 14 15  1  6
 15 16  1  0
 16 17  1  0
 17 18  2  0
 17 19  1  6
 17 20  1  0
 20 21  1  0
 21 22  2  0
 21 23  1  0
 21 24  1  0
 14 25  1  0
 25 26  1  1
 25 27  1  0
 27 28  1  1
 11 29  1  0
 29 30  2  0
 30 31  1  0
 10  4  1  0
 27 12  1  0
 30  8  1  0
M  CHG  1  30   1
M  END
>  <shape_align_shape_tanimoto>  (1) 
0.63914416277689001

>  <shape_align_color_tanimoto>  (1) 
0.07021665515304959

>  <metric>  (1) 
shape

>  <metric_score>  (1) 
0.639

>  <template_pid>  (1) 
3M94

>  <template_shape_score>  (1) 
0.639

>  <template_color_score>  (1) 
0.070

>  <template_combo_score>  (1) 
0.355

$$$$
3M94_color_pose
     RDKit          3D

 31 33  0  0  0  0  0  0  0  0999 V2000
   -0.0522   27.9200   83.9642 C   0  0  0  0  0  0  0  0  0  0  0  0
   -0.3464   27.8378   82.5454 N   0  0  0  0  0  0  0  0  0  0  0  0
   -0.4439   26.5327   81.9342 C   0  0  0  0  0  0  0  0  0  0  0  0
   -0.5225   29.0566   81.8361 C   0  0  0  0  0  0  0  0  0  0  0  0
   -0.4079   30.2041   82.5170 N   0  0  0  0  0  0  0  0  0  0  0  0
   -0.5599   31.4212   81.9210 C   0  0  0  0  0  0  0  0  0  0  0  0
   -0.4491   32.4964   82.5755 O   0  0  0  0  0  0  0  0  0  0  0  0
   -0.8384   31.4702   80.5844 C   0  0  0  0  0  0  0  0  0  0  0  0
   -0.9594   30.3061   79.8711 C   0  0  0  0  0  0  0  0  0  0  0  0
   -0.7961   29.1186   80.5247 N   0  0  0  0  0  0  0  0  0  0  0  0
   -1.2371   30.5805   78.5628 N   0  0  0  0  0  0  0  0  0  0  0  0
   -1.4353   29.5961   77.4974 C   0  0  2  0  0  0  0  0  0  0  0  0
   -0.3536   29.6720   76.6551 O   0  0  0  0  0  0  0  0  0  0  0  0
   -0.7715   30.0920   75.4242 C   0  0  2  0  0  0  0  0  0  0  0  0
    0.0162   31.2997   74.9231 C   0  0  0  0  0  0  0  0  0  0  0  0
    1.3612   31.0262   74.8109 O   0  0  0  0  0  0  0  0  0  0  0  0
    2.2982   32.3091   74.2849 P   0  0  2  0  0  5  0  0  0  0  0  0
    1.5368   33.6127   74.2554 O   0  0  0  0  0  0  0  0  0  0  0  0
    2.8564   32.0026   72.7184 O   0  0  0  0  0  0  0  0  0  0  0  0
    3.6436   32.3966   75.3029 O   0  0  0  0  0  0  0  0  0  0  0  0
    4.5758   33.7740   75.0089 P   0  0  0  0  0  0  0  0  0  0  0  0
    3.8643   35.0399   75.3852 O   0  0  0  0  0  0  0  0  0  0  0  0
    5.9770   33.6437   75.9581 O   0  0  0  0  0  0  0  0  0  0  0  0
    5.0295   33.7494   73.3845 O   0  0  0  0  0  0  0  0  0  0  0  0
   -2.2058   30.4922   75.4797 C   0  0  1  0  0  0  0  0  0  0  0  0
   -2.9222   30.1175   74.3487 O   0  0  0  0  0  0  0  0  0  0  0  0
   -2.6947   29.8223   76.7267 C   0  0  1  0  0  0  0  0  0  0  0  0
   -3.3800   28.6355   76.4870 O   0  0  0  0  0  0  0  0  0  0  0  0
   -1.2817   31.9129   78.4970 C   0  0  0  0  0  0  0  0  0  0  0  0
   -1.0434   32.4676   79.7080 N   0  0  0  0  0  0  0  0  0  0  0  0
   -1.0144   33.8890   80.0071 C   0  0  0  0  0  0  0  0  0  0  0  0
  1  2  1  0
  2  3  1  0
  2  4  1  0
  4  5  2  0
  5  6  1  0
  6  7  2  0
  6  8  1  0
  8  9  2  0
  9 10  1  0
  9 11  1  0
 12 11  1  1
 12 13  1  0
 13 14  1  0
 14 15  1  1
 15 16  1  0
 16 17  1  0
 17 18  2  0
 17 19  1  6
 17 20  1  0
 20 21  1  0
 21 22  2  0
 21 23  1  0
 21 24  1  0
 14 25  1  0
 25 26  1  6
 25 27  1  0
 27 28  1  6
 11 29  1  0
 29 30  2  0
 30 31  1  0
 10  4  1  0
 27 12  1  0
 30  8  1  0
M  CHG  1  30   1
M  END
>  <shape_align_shape_tanimoto>  (2) 
0.49667567968082832

>  <shape_align_color_tanimoto>  (2) 
0.13026076677895421

>  <metric>  (2) 
color

>  <metric_score>  (2) 
0.130

>  <template_pid>  (2) 
3M94

>  <template_shape_score>  (2) 
0.497

>  <template_color_score>  (2) 
0.130

>  <template_combo_score>  (2) 
0.313

$$$$
3M94_combo_pose
     RDKit          3D

 31 33  0  0  0  0  0  0  0  0999 V2000
   -4.8500   26.3262   78.8381 C   0  0  0  0  0  0  0  0  0  0  0  0
   -5.3844   26.1638   77.4823 N   0  0  0  0  0  0  0  0  0  0  0  0
   -6.2915   25.0793   77.1569 C   0  0  0  0  0  0  0  0  0  0  0  0
   -5.0011   27.0910   76.4736 C   0  0  0  0  0  0  0  0  0  0  0  0
   -5.4890   26.9542   75.2082 N   0  0  0  0  0  0  0  0  0  0  0  0
   -5.1508   27.8084   74.2303 C   0  0  0  0  0  0  0  0  0  0  0  0
   -5.6041   27.6764   73.0668 O   0  0  0  0  0  0  0  0  0  0  0  0
   -4.2893   28.8299   74.5587 C   0  0  0  0  0  0  0  0  0  0  0  0
   -3.7685   29.0094   75.8269 C   0  0  0  0  0  0  0  0  0  0  0  0
   -4.1627   28.1004   76.7562 N   0  0  0  0  0  0  0  0  0  0  0  0
   -2.9627   30.0877   75.8392 N   0  0  0  0  0  0  0  0  0  0  0  0
   -2.2422   30.5813   76.9974 C   0  0  2  0  0  0  0  0  0  0  0  0
   -1.5091   31.6839   76.5865 O   0  0  0  0  0  0  0  0  0  0  0  0
   -0.2078   31.3576   76.3671 C   0  0  2  0  0  0  0  0  0  0  0  0
    0.4309   31.8862   75.1342 C   0  0  0  0  0  0  0  0  0  0  0  0
    1.7710   31.4271   75.1161 O   0  0  0  0  0  0  0  0  0  0  0  0
    2.4671   32.0472   73.7025 P   0  0  2  0  0  5  0  0  0  0  0  0
    1.3792   32.0922   72.6543 O   0  0  0  0  0  0  0  0  0  0  0  0
    3.6964   31.0231   73.1827 O   0  0  0  0  0  0  0  0  0  0  0  0
    3.0710   33.6044   73.9388 O   0  0  0  0  0  0  0  0  0  0  0  0
    3.9971   33.7094   75.3456 P   0  0  0  0  0  0  0  0  0  0  0  0
    4.9937   32.5941   75.4843 O   0  0  0  0  0  0  0  0  0  0  0  0
    4.8264   35.2017   75.2738 O   0  0  0  0  0  0  0  0  0  0  0  0
    2.9914   33.7464   76.7109 O   0  0  0  0  0  0  0  0  0  0  0  0
   -0.1169   29.8294   76.4544 C   0  0  1  0  0  0  0  0  0  0  0  0
    1.1220   29.4182   76.9413 O   0  0  0  0  0  0  0  0  0  0  0  0
   -1.2061   29.6499   77.5234 C   0  0  1  0  0  0  0  0  0  0  0  0
   -0.6587   30.2318   78.6733 O   0  0  0  0  0  0  0  0  0  0  0  0
   -2.9947   30.5620   74.5805 C   0  0  0  0  0  0  0  0  0  0  0  0
   -3.7864   29.8185   73.7986 N   0  0  0  0  0  0  0  0  0  0  0  0
   -4.0797   30.0101   72.3720 C   0  0  0  0  0  0  0  0  0  0  0  0
  1  2  1  0
  2  3  1  0
  2  4  1  0
  4  5  2  0
  5  6  1  0
  6  7  2  0
  6  8  1  0
  8  9  2  0
  9 10  1  0
  9 11  1  0
 12 11  1  6
 12 13  1  0
 13 14  1  0
 14 15  1  6
 15 16  1  0
 16 17  1  0
 17 18  2  0
 17 19  1  6
 17 20  1  0
 20 21  1  0
 21 22  2  0
 21 23  1  0
 21 24  1  0
 14 25  1  0
 25 26  1  1
 25 27  1  0
 27 28  1  1
 11 29  1  0
 29 30  2  0
 30 31  1  0
 10  4  1  0
 27 12  1  0
 30  8  1  0
M  CHG  1  30   1
M  END
>  <shape_align_shape_tanimoto>  (3) 
0.63914416277689001

>  <shape_align_color_tanimoto>  (3) 
0.07021665515304959

>  <metric>  (3) 
combo

>  <metric_score>  (3) 
0.355

>  <template_pid>  (3) 
3M94

>  <template_shape_score>  (3) 
0.639

>  <template_color_score>  (3) 
0.070

>  <template_combo_score>  (3) 
0.355

$$$$
