4I1C_shape_pose
     RDKit          3D

 32 35  0  0  0  0  0  0  0  0999 V2000
   17.8735   10.4194   23.1387 C   0  0  0  0  0  0  0  0  0  0  0  0
   18.4889   10.9124   21.8566 C   0  0  0  0  0  0  0  0  0  0  0  0
   19.6702   10.0094   21.4486 C   0  0  0  0  0  0  0  0  0  0  0  0
   20.6240   10.0868   22.5474 C   0  0  0  0  0  0  0  0  0  0  0  0
   20.6301    8.8007   23.8438 S   0  0  0  0  0  0  0  0  0  0  0  0
   21.8986    9.6420   24.7929 C   0  0  0  0  0  0  0  0  0  0  0  0
   22.2162   10.7927   24.0862 C   0  0  0  0  0  0  0  0  0  0  0  0
   23.2449   11.7045   24.6747 C   0  0  0  0  0  0  0  0  0  0  0  0
   23.1238   13.0452   24.9404 C   0  0  0  0  0  0  0  0  0  0  0  0
   24.3061   13.4698   25.4574 N   0  0  0  0  0  0  0  0  0  0  0  0
   25.1417   12.4451   25.5185 N   0  0  0  0  0  0  0  0  0  0  0  0
   24.5256   11.3456   25.0471 C   0  0  0  0  0  0  0  0  0  0  0  0
   21.5610   11.0098   22.9388 C   0  0  0  0  0  0  0  0  0  0  0  0
   21.9028   12.1689   22.0288 C   0  0  0  0  0  0  0  0  0  0  0  0
   23.1018   11.8397   21.1900 C   0  0  2  0  0  0  0  0  0  0  0  0
   23.4327   12.9072   20.2732 N   0  0  0  0  0  0  0  0  0  0  0  0
   24.4101   12.8627   19.2570 C   0  0  0  0  0  0  0  0  0  0  0  0
   24.5779   11.7613   18.6354 N   0  0  0  0  0  0  0  0  0  0  0  0
   25.5376   11.6022   17.5906 C   0  0  0  0  0  0  0  0  0  0  0  0
   26.4789   10.4406   17.8866 C   0  0  0  0  0  0  0  0  0  0  0  0
   24.7209   11.1516   16.3624 C   0  0  0  0  0  0  0  0  0  0  0  0
   26.3350   12.7861   17.2068 C   0  0  0  0  0  0  0  0  0  0  0  0
   26.0918   14.0220   17.9690 C   0  0  0  0  0  0  0  0  0  0  0  0
   26.8392   15.1343   17.6400 C   0  0  0  0  0  0  0  0  0  0  0  0
   26.6509   16.3315   18.3238 C   0  0  0  0  0  0  0  0  0  0  0  0
   27.5913   17.7668   17.9251 Cl  0  0  0  0  0  0  0  0  0  0  0  0
   25.7083   16.4028   19.3382 C   0  0  0  0  0  0  0  0  0  0  0  0
   24.9572   15.2685   19.6621 C   0  0  0  0  0  0  0  0  0  0  0  0
   25.1552   14.0890   18.9754 C   0  0  0  0  0  0  0  0  0  0  0  0
   23.3714   10.4887   20.7920 C   0  0  0  0  0  0  0  0  0  0  0  0
   22.5986    9.5338   20.5732 O   0  0  0  0  0  0  0  0  0  0  0  0
   24.7479   10.1295   20.6066 O   0  0  0  0  0  0  0  0  0  0  0  0
  1  2  1  0
  2  3  1  0
  3  4  1  0
  4  5  1  0
  5  6  1  0
  6  7  2  0
  7  8  1  0
  8  9  1  0
  9 10  2  0
 10 11  1  0
 11 12  1  0
  7 13  1  0
 13 14  1  0
 15 14  1  6
 15 16  1  0
 16 17  1  0
 17 18  2  0
 18 19  1  0
 19 20  1  0
 19 21  1  0
 19 22  1  0
 22 23  1  0
 23 24  2  0
 24 25  1  0
 25 26  1  0
 25 27  2  0
 27 28  1  0
 28 29  2  0
 15 30  1  0
 30 31  2  0
 30 32  1  0
 13  4  2  0
 29 17  1  0
 12  8  2  0
 29 23  1  0
M  CHG  1  32  -1
M  END
>  <shape_align_shape_tanimoto>  (1) 
0.55670576866822286

>  <shape_align_color_tanimoto>  (1) 
0.032218140471057068

>  <metric>  (1) 
shape

>  <metric_score>  (1) 
0.557

>  <template_pid>  (1) 
4I1C

>  <template_shape_score>  (1) 
0.557

>  <template_color_score>  (1) 
0.032

>  <template_combo_score>  (1) 
0.294

$$$$
4I1C_color_pose
     RDKit          3D

 32 35  0  0  0  0  0  0  0  0999 V2000
   18.9109   11.1507   18.3004 C   0  0  0  0  0  0  0  0  0  0  0  0
   20.3654   11.1301   17.8573 C   0  0  0  0  0  0  0  0  0  0  0  0
   21.1815   12.2287   18.5232 C   0  0  0  0  0  0  0  0  0  0  0  0
   21.1421   12.0540   19.9537 C   0  0  0  0  0  0  0  0  0  0  0  0
   19.9498   13.0377   20.8586 S   0  0  0  0  0  0  0  0  0  0  0  0
   20.3937   12.3032   22.4493 C   0  0  0  0  0  0  0  0  0  0  0  0
   21.4080   11.3733   22.1657 C   0  0  0  0  0  0  0  0  0  0  0  0
   21.9451   10.5935   23.3161 C   0  0  0  0  0  0  0  0  0  0  0  0
   21.9977    9.2328   23.4725 C   0  0  0  0  0  0  0  0  0  0  0  0
   22.5844    8.9825   24.6628 N   0  0  0  0  0  0  0  0  0  0  0  0
   22.8843   10.1379   25.2245 N   0  0  0  0  0  0  0  0  0  0  0  0
   22.5179   11.1701   24.4495 C   0  0  0  0  0  0  0  0  0  0  0  0
   21.7859   11.2549   20.8726 C   0  0  0  0  0  0  0  0  0  0  0  0
   22.8765   10.3306   20.4500 C   0  0  0  0  0  0  0  0  0  0  0  0
   24.2388   10.8244   20.3094 C   0  0  2  0  0  0  0  0  0  0  0  0
   24.5611   11.8762   19.4001 N   0  0  0  0  0  0  0  0  0  0  0  0
   24.5457   13.2518   19.7495 C   0  0  0  0  0  0  0  0  0  0  0  0
   23.8529   13.6967   20.7325 N   0  0  0  0  0  0  0  0  0  0  0  0
   23.7714   15.0665   21.1662 C   0  0  0  0  0  0  0  0  0  0  0  0
   22.3209   15.5425   21.0644 C   0  0  0  0  0  0  0  0  0  0  0  0
   24.1032   15.0362   22.6670 C   0  0  0  0  0  0  0  0  0  0  0  0
   24.6232   16.0351   20.4331 C   0  0  0  0  0  0  0  0  0  0  0  0
   25.3927   15.4824   19.3025 C   0  0  0  0  0  0  0  0  0  0  0  0
   26.1680   16.3942   18.5807 C   0  0  0  0  0  0  0  0  0  0  0  0
   26.9353   15.9932   17.5111 C   0  0  0  0  0  0  0  0  0  0  0  0
   27.8955   17.1797   16.6347 Cl  0  0  0  0  0  0  0  0  0  0  0  0
   26.9223   14.6671   17.1658 C   0  0  0  0  0  0  0  0  0  0  0  0
   26.1424   13.7598   17.8944 C   0  0  0  0  0  0  0  0  0  0  0  0
   25.3773   14.1488   18.9576 C   0  0  0  0  0  0  0  0  0  0  0  0
   25.1320    9.6624   19.8965 C   0  0  0  0  0  0  0  0  0  0  0  0
   26.3907    9.7572   20.0917 O   0  0  0  0  0  0  0  0  0  0  0  0
   24.5627    8.5440   19.3256 O   0  0  0  0  0  0  0  0  0  0  0  0
  1  2  1  0
  2  3  1  0
  3  4  1  0
  4  5  1  0
  5  6  1  0
  6  7  2  0
  7  8  1  0
  8  9  1  0
  9 10  2  0
 10 11  1  0
 11 12  1  0
  7 13  1  0
 13 14  1  0
 15 14  1  6
 15 16  1  0
 16 17  1  0
 17 18  2  0
 18 19  1  0
 19 20  1  0
 19 21  1  0
 19 22  1  0
 22 23  1  0
 23 24  2  0
 24 25  1  0
 25 26  1  0
 25 27  2  0
 27 28  1  0
 28 29  2  0
 15 30  1  0
 30 31  2  0
 30 32  1  0
 13  4  2  0
 29 17  1  0
 12  8  2  0
 29 23  1  0
M  CHG  1  32  -1
M  END
>  <shape_align_shape_tanimoto>  (2) 
0.49998919934486602

>  <shape_align_color_tanimoto>  (2) 
0.092223757247531402

>  <metric>  (2) 
color

>  <metric_score>  (2) 
0.092

>  <template_pid>  (2) 
4I1C

>  <template_shape_score>  (2) 
0.500

>  <template_color_score>  (2) 
0.092

>  <template_combo_score>  (2) 
0.296

$$$$
4I1C_combo_pose
     RDKit          3D

 32 35  0  0  0  0  0  0  0  0999 V2000
   19.8868   15.4726   18.7621 C   0  0  0  0  0  0  0  0  0  0  0  0
   21.3603   15.4060   18.6538 C   0  0  0  0  0  0  0  0  0  0  0  0
   21.9539   14.0389   18.8677 C   0  0  0  0  0  0  0  0  0  0  0  0
   21.6630   13.4589   20.1600 C   0  0  0  0  0  0  0  0  0  0  0  0
   20.6964   14.3948   21.3143 S   0  0  0  0  0  0  0  0  0  0  0  0
   20.6749   13.1600   22.5599 C   0  0  0  0  0  0  0  0  0  0  0  0
   21.4171   12.0858   22.0216 C   0  0  0  0  0  0  0  0  0  0  0  0
   21.5486   10.8657   22.8647 C   0  0  0  0  0  0  0  0  0  0  0  0
   21.1857    9.5737   22.5554 C   0  0  0  0  0  0  0  0  0  0  0  0
   21.4986    8.7726   23.5899 N   0  0  0  0  0  0  0  0  0  0  0  0
   22.0441    9.5225   24.5341 N   0  0  0  0  0  0  0  0  0  0  0  0
   22.0897   10.8113   24.1213 C   0  0  0  0  0  0  0  0  0  0  0  0
   21.9174   12.2669   20.7816 C   0  0  0  0  0  0  0  0  0  0  0  0
   22.8016   11.2135   20.1454 C   0  0  0  0  0  0  0  0  0  0  0  0
   24.2309   11.3007   20.4522 C   0  0  2  0  0  0  0  0  0  0  0  0
   25.0531   12.3854   20.1237 N   0  0  0  0  0  0  0  0  0  0  0  0
   25.4398   12.8169   18.8183 C   0  0  0  0  0  0  0  0  0  0  0  0
   25.3746   11.9783   17.8786 N   0  0  0  0  0  0  0  0  0  0  0  0
   25.7302   12.2650   16.5277 C   0  0  0  0  0  0  0  0  0  0  0  0
   26.9120   11.3440   16.1342 C   0  0  0  0  0  0  0  0  0  0  0  0
   24.6243   11.8542   15.5549 C   0  0  0  0  0  0  0  0  0  0  0  0
   26.1382   13.6539   16.1920 C   0  0  0  0  0  0  0  0  0  0  0  0
   26.2171   14.5570   17.3360 C   0  0  0  0  0  0  0  0  0  0  0  0
   26.6519   15.8647   17.0879 C   0  0  0  0  0  0  0  0  0  0  0  0
   26.7498   16.8077   18.0873 C   0  0  0  0  0  0  0  0  0  0  0  0
   27.2932   18.4539   17.7864 Cl  0  0  0  0  0  0  0  0  0  0  0  0
   26.4018   16.4333   19.3790 C   0  0  0  0  0  0  0  0  0  0  0  0
   25.9694   15.1251   19.6132 C   0  0  0  0  0  0  0  0  0  0  0  0
   25.8750   14.1951   18.6180 C   0  0  0  0  0  0  0  0  0  0  0  0
   24.8405    9.9602   20.1494 C   0  0  0  0  0  0  0  0  0  0  0  0
   25.7372    9.8041   19.2842 O   0  0  0  0  0  0  0  0  0  0  0  0
   24.4181    8.8379   20.8299 O   0  0  0  0  0  0  0  0  0  0  0  0
  1  2  1  0
  2  3  1  0
  3  4  1  0
  4  5  1  0
  5  6  1  0
  6  7  2  0
  7  8  1  0
  8  9  1  0
  9 10  2  0
 10 11  1  0
 11 12  1  0
  7 13  1  0
 13 14  1  0
 15 14  1  6
 15 16  1  0
 16 17  1  0
 17 18  2  0
 18 19  1  0
 19 20  1  0
 19 21  1  0
 19 22  1  0
 22 23  1  0
 23 24  2  0
 24 25  1  0
 25 26  1  0
 25 27  2  0
 27 28  1  0
 28 29  2  0
 15 30  1  0
 30 31  2  0
 30 32  1  0
 13  4  2  0
 29 17  1  0
 12  8  2  0
 29 23  1  0
M  CHG  1  32  -1
M  END
>  <shape_align_shape_tanimoto>  (3) 
0.52274446965153698

>  <shape_align_color_tanimoto>  (3) 
0.089300521322472307

>  <metric>  (3) 
combo

>  <metric_score>  (3) 
0.306

>  <template_pid>  (3) 
4I1C

>  <template_shape_score>  (3) 
0.523

>  <template_color_score>  (3) 
0.089

>  <template_combo_score>  (3) 
0.306

$$$$
