4GR8_shape_pose
     RDKit          3D

 37 39  0  0  0  0  0  0  0  0999 V2000
    5.1923   56.2259   54.4537 C   0  0  0  0  0  0  0  0  0  0  0  0
    3.9772   56.0155   53.5718 C   0  0  2  0  0  0  0  0  0  0  0  0
    4.3309   55.3638   52.3087 N   0  0  0  0  0  0  0  0  0  0  0  0
    3.7195   54.1080   52.0476 C   0  0  0  0  0  0  0  0  0  0  0  0
    2.9146   53.5702   52.8483 O   0  0  0  0  0  0  0  0  0  0  0  0
    4.0319   53.3918   50.7878 C   0  0  2  0  0  0  0  0  0  0  0  0
    3.5609   54.2324   49.6036 C   0  0  0  0  0  0  0  0  0  0  0  0
    3.2603   52.1538   50.8139 N   0  0  0  0  0  0  0  0  0  0  0  0
    3.8730   50.8726   50.6739 C   0  0  0  0  0  0  0  0  0  0  0  0
    5.1465   50.9060   50.5302 O   0  0  0  0  0  0  0  0  0  0  0  0
    3.1366   49.6004   50.6909 C   0  0  2  0  0  0  0  0  0  0  0  0
    2.2216   49.3551   49.5517 C   0  0  0  0  0  0  0  0  0  0  0  0
    1.1343   50.3348   49.3616 C   0  0  0  0  0  0  0  0  0  0  0  0
   -0.1131   50.2318   49.9540 C   0  0  0  0  0  0  0  0  0  0  0  0
   -0.8424   51.3307   49.5346 C   0  0  0  0  0  0  0  0  0  0  0  0
   -2.2196   51.6298   49.9160 C   0  0  0  0  0  0  0  0  0  0  0  0
   -2.9375   50.8087   50.7603 C   0  0  0  0  0  0  0  0  0  0  0  0
   -4.2494   51.1124   51.1111 C   0  0  0  0  0  0  0  0  0  0  0  0
   -4.8479   52.2635   50.6022 C   0  0  0  0  0  0  0  0  0  0  0  0
   -4.1296   53.0894   49.7546 C   0  0  0  0  0  0  0  0  0  0  0  0
   -2.8164   52.7731   49.4114 C   0  0  0  0  0  0  0  0  0  0  0  0
   -0.0203   52.0302   48.7268 N   0  0  0  0  0  0  0  0  0  0  0  0
    1.1178   51.4454   48.6348 O   0  0  0  0  0  0  0  0  0  0  0  0
    2.4710   49.4178   52.0411 C   0  0  0  0  0  0  0  0  0  0  0  0
    3.7747   49.4073   53.3042 P   0  0  2  0  0  5  0  0  0  0  0  0
    4.2549   50.8040   53.5702 O   0  0  0  0  0  0  0  0  0  0  0  0
    5.0712   48.4344   52.7710 O   0  0  0  0  0  0  0  0  0  0  0  0
    3.1769   48.7370   54.8457 C   0  0  0  0  0  0  0  0  0  0  0  0
    3.8622   49.0955   55.9976 C   0  0  0  0  0  0  0  0  0  0  0  0
    3.4389   48.6030   57.2160 C   0  0  0  0  0  0  0  0  0  0  0  0
    2.3497   47.7603   57.3279 C   0  0  0  0  0  0  0  0  0  0  0  0
    1.7754   47.0863   59.0226 Br  0  0  0  0  0  0  0  0  0  0  0  0
    1.6866   47.4201   56.1661 C   0  0  0  0  0  0  0  0  0  0  0  0
    2.0912   47.9000   54.9358 C   0  0  0  0  0  0  0  0  0  0  0  0
    3.4190   57.3717   53.2817 C   0  0  0  0  0  0  0  0  0  0  0  0
    3.0133   58.1683   54.3900 N   0  0  0  0  0  0  0  0  0  0  0  0
    3.3065   57.8077   52.0919 O   0  0  0  0  0  0  0  0  0  0  0  0
  2  1  1  1
  2  3  1  0
  3  4  1  0
  4  5  2  0
  4  6  1  0
  6  7  1  6
  6  8  1  0
  8  9  1  0
  9 10  2  0
  9 11  1  0
 11 12  1  6
 12 13  1  0
 13 14  2  0
 14 15  1  0
 15 16  1  0
 16 17  2  0
 17 18  1  0
 18 19  2  0
 19 20  1  0
 20 21  2  0
 15 22  2  0
 22 23  1  0
 11 24  1  0
 24 25  1  0
 25 26  2  0
 25 27  1  6
 25 28  1  0
 28 29  2  0
 29 30  1  0
 30 31  2  0
 31 32  1  0
 31 33  1  0
 33 34  2  0
  2 35  1  0
 35 36  1  0
 35 37  2  0
 23 13  1  0
 34 28  1  0
 21 16  1  0
M  END
>  <shape_align_shape_tanimoto>  (1) 
0.58990661586000215

>  <shape_align_color_tanimoto>  (1) 
0.039810951374402812

>  <metric>  (1) 
shape

>  <metric_score>  (1) 
0.590

>  <template_pid>  (1) 
4GR8

>  <template_shape_score>  (1) 
0.590

>  <template_color_score>  (1) 
0.040

>  <template_combo_score>  (1) 
0.315

$$$$
4GR8_color_pose
     RDKit          3D

 37 39  0  0  0  0  0  0  0  0999 V2000
   -4.4385   50.1335   49.1823 C   0  0  0  0  0  0  0  0  0  0  0  0
   -3.6815   51.2394   49.8729 C   0  0  2  0  0  0  0  0  0  0  0  0
   -2.8151   50.7827   50.9339 N   0  0  0  0  0  0  0  0  0  0  0  0
   -1.4089   50.9182   50.7801 C   0  0  0  0  0  0  0  0  0  0  0  0
   -0.8858   51.4271   49.7357 O   0  0  0  0  0  0  0  0  0  0  0  0
   -0.5441   50.4510   51.8693 C   0  0  2  0  0  0  0  0  0  0  0  0
   -0.9240   51.3043   53.0912 C   0  0  0  0  0  0  0  0  0  0  0  0
    0.8654   50.6037   51.5883 N   0  0  0  0  0  0  0  0  0  0  0  0
    1.7879   49.5871   51.8421 C   0  0  0  0  0  0  0  0  0  0  0  0
    1.2639   48.5151   52.3483 O   0  0  0  0  0  0  0  0  0  0  0  0
    3.2208   49.5474   51.6300 C   0  0  2  0  0  0  0  0  0  0  0  0
    3.8646   48.3635   52.3567 C   0  0  0  0  0  0  0  0  0  0  0  0
    3.6953   48.4238   53.8123 C   0  0  0  0  0  0  0  0  0  0  0  0
    2.7722   47.9110   54.6729 C   0  0  0  0  0  0  0  0  0  0  0  0
    3.1136   48.2886   55.9796 C   0  0  0  0  0  0  0  0  0  0  0  0
    2.4081   47.9692   57.2150 C   0  0  0  0  0  0  0  0  0  0  0  0
    2.9066   48.4425   58.4107 C   0  0  0  0  0  0  0  0  0  0  0  0
    2.2566   48.1608   59.6066 C   0  0  0  0  0  0  0  0  0  0  0  0
    1.1104   47.4033   59.5758 C   0  0  0  0  0  0  0  0  0  0  0  0
    0.6118   46.9308   58.3847 C   0  0  0  0  0  0  0  0  0  0  0  0
    1.2554   47.2088   57.1934 C   0  0  0  0  0  0  0  0  0  0  0  0
    4.2314   49.0101   55.8261 N   0  0  0  0  0  0  0  0  0  0  0  0
    4.5670   49.0889   54.5811 O   0  0  0  0  0  0  0  0  0  0  0  0
    4.0629   50.7284   51.8948 C   0  0  0  0  0  0  0  0  0  0  0  0
    3.8267   52.2174   50.9526 P   0  0  2  0  0  5  0  0  0  0  0  0
    5.2054   52.9387   50.7607 O   0  0  0  0  0  0  0  0  0  0  0  0
    2.9267   53.3334   51.8402 O   0  0  0  0  0  0  0  0  0  0  0  0
    3.2106   51.9728   49.3151 C   0  0  0  0  0  0  0  0  0  0  0  0
    3.8737   51.0385   48.5193 C   0  0  0  0  0  0  0  0  0  0  0  0
    3.4838   50.7711   47.2284 C   0  0  0  0  0  0  0  0  0  0  0  0
    2.4098   51.4278   46.6730 C   0  0  0  0  0  0  0  0  0  0  0  0
    1.8798   51.0475   44.8850 Br  0  0  0  0  0  0  0  0  0  0  0  0
    1.7532   52.3551   47.4664 C   0  0  0  0  0  0  0  0  0  0  0  0
    2.1378   52.6297   48.7628 C   0  0  0  0  0  0  0  0  0  0  0  0
   -4.6650   52.2462   50.3272 C   0  0  0  0  0  0  0  0  0  0  0  0
   -4.6269   52.6041   51.7108 N   0  0  0  0  0  0  0  0  0  0  0  0
   -5.5012   52.7645   49.5226 O   0  0  0  0  0  0  0  0  0  0  0  0
  2  1  1  1
  2  3  1  0
  3  4  1  0
  4  5  2  0
  4  6  1  0
  6  7  1  1
  6  8  1  0
  8  9  1  0
  9 10  2  0
  9 11  1  0
 11 12  1  1
 12 13  1  0
 13 14  2  0
 14 15  1  0
 15 16  1  0
 16 17  2  0
 17 18  1  0
 18 19  2  0
 19 20  1  0
 20 21  2  0
 15 22  2  0
 22 23  1  0
 11 24  1  0
 24 25  1  0
 25 26  2  0
 25 27  1  1
 25 28  1  0
 28 29  2  0
 29 30  1  0
 30 31  2  0
 31 32  1  0
 31 33  1  0
 33 34  2  0
  2 35  1  0
 35 36  1  0
 35 37  2  0
 23 13  1  0
 34 28  1  0
 21 16  1  0
M  END
>  <shape_align_shape_tanimoto>  (2) 
0.57196831111206647

>  <shape_align_color_tanimoto>  (2) 
0.098899211164013207

>  <metric>  (2) 
color

>  <metric_score>  (2) 
0.099

>  <template_pid>  (2) 
4GR8

>  <template_shape_score>  (2) 
0.572

>  <template_color_score>  (2) 
0.099

>  <template_combo_score>  (2) 
0.335

$$$$
4GR8_combo_pose
     RDKit          3D

 37 39  0  0  0  0  0  0  0  0999 V2000
   -4.4385   50.1335   49.1823 C   0  0  0  0  0  0  0  0  0  0  0  0
   -3.6815   51.2394   49.8729 C   0  0  2  0  0  0  0  0  0  0  0  0
   -2.8151   50.7827   50.9339 N   0  0  0  0  0  0  0  0  0  0  0  0
   -1.4089   50.9182   50.7801 C   0  0  0  0  0  0  0  0  0  0  0  0
   -0.8858   51.4271   49.7357 O   0  0  0  0  0  0  0  0  0  0  0  0
   -0.5441   50.4510   51.8693 C   0  0  2  0  0  0  0  0  0  0  0  0
   -0.9240   51.3043   53.0912 C   0  0  0  0  0  0  0  0  0  0  0  0
    0.8654   50.6037   51.5883 N   0  0  0  0  0  0  0  0  0  0  0  0
    1.7879   49.5871   51.8421 C   0  0  0  0  0  0  0  0  0  0  0  0
    1.2639   48.5151   52.3483 O   0  0  0  0  0  0  0  0  0  0  0  0
    3.2208   49.5474   51.6300 C   0  0  2  0  0  0  0  0  0  0  0  0
    3.8646   48.3635   52.3567 C   0  0  0  0  0  0  0  0  0  0  0  0
    3.6953   48.4238   53.8123 C   0  0  0  0  0  0  0  0  0  0  0  0
    2.7722   47.9110   54.6729 C   0  0  0  0  0  0  0  0  0  0  0  0
    3.1136   48.2886   55.9796 C   0  0  0  0  0  0  0  0  0  0  0  0
    2.4081   47.9692   57.2150 C   0  0  0  0  0  0  0  0  0  0  0  0
    2.9066   48.4425   58.4107 C   0  0  0  0  0  0  0  0  0  0  0  0
    2.2566   48.1608   59.6066 C   0  0  0  0  0  0  0  0  0  0  0  0
    1.1104   47.4033   59.5758 C   0  0  0  0  0  0  0  0  0  0  0  0
    0.6118   46.9308   58.3847 C   0  0  0  0  0  0  0  0  0  0  0  0
    1.2554   47.2088   57.1934 C   0  0  0  0  0  0  0  0  0  0  0  0
    4.2314   49.0101   55.8261 N   0  0  0  0  0  0  0  0  0  0  0  0
    4.5670   49.0889   54.5811 O   0  0  0  0  0  0  0  0  0  0  0  0
    4.0629   50.7284   51.8948 C   0  0  0  0  0  0  0  0  0  0  0  0
    3.8267   52.2174   50.9526 P   0  0  2  0  0  5  0  0  0  0  0  0
    5.2054   52.9387   50.7607 O   0  0  0  0  0  0  0  0  0  0  0  0
    2.9267   53.3334   51.8402 O   0  0  0  0  0  0  0  0  0  0  0  0
    3.2106   51.9728   49.3151 C   0  0  0  0  0  0  0  0  0  0  0  0
    3.8737   51.0385   48.5193 C   0  0  0  0  0  0  0  0  0  0  0  0
    3.4838   50.7711   47.2284 C   0  0  0  0  0  0  0  0  0  0  0  0
    2.4098   51.4278   46.6730 C   0  0  0  0  0  0  0  0  0  0  0  0
    1.8798   51.0475   44.8850 Br  0  0  0  0  0  0  0  0  0  0  0  0
    1.7532   52.3551   47.4664 C   0  0  0  0  0  0  0  0  0  0  0  0
    2.1378   52.6297   48.7628 C   0  0  0  0  0  0  0  0  0  0  0  0
   -4.6650   52.2462   50.3272 C   0  0  0  0  0  0  0  0  0  0  0  0
   -4.6269   52.6041   51.7108 N   0  0  0  0  0  0  0  0  0  0  0  0
   -5.5012   52.7645   49.5226 O   0  0  0  0  0  0  0  0  0  0  0  0
  2  1  1  1
  2  3  1  0
  3  4  1  0
  4  5  2  0
  4  6  1  0
  6  7  1  1
  6  8  1  0
  8  9  1  0
  9 10  2  0
  9 11  1  0
 11 12  1  1
 12 13  1  0
 13 14  2  0
 14 15  1  0
 15 16  1  0
 16 17  2  0
 17 18  1  0
 18 19  2  0
 19 20  1  0
 20 21  2  0
 15 22  2  0
 22 23  1  0
 11 24  1  0
 24 25  1  0
 25 26  2  0
 25 27  1  1
 25 28  1  0
 28 29  2  0
 29 30  1  0
 30 31  2  0
 31 32  1  0
 31 33  1  0
 33 34  2  0
  2 35  1  0
 35 36  1  0
 35 37  2  0
 23 13  1  0
 34 28  1  0
 21 16  1  0
M  END
>  <shape_align_shape_tanimoto>  (3) 
0.57196831111206647

>  <shape_align_color_tanimoto>  (3) 
0.098899211164013207

>  <metric>  (3) 
combo

>  <metric_score>  (3) 
0.335

>  <template_pid>  (3) 
4GR8

>  <template_shape_score>  (3) 
0.572

>  <template_color_score>  (3) 
0.099

>  <template_combo_score>  (3) 
0.335

$$$$
