3HVG_shape_pose
     RDKit          3D

 11 11  0  0  0  0  0  0  0  0999 V2000
   27.5809   47.9150   78.5742 C   0  0  0  0  0  0  0  0  0  0  0  0
   28.9406   48.2671   78.0185 C   0  0  0  0  0  0  0  0  0  0  0  0
   28.8802   49.3331   76.9705 C   0  0  0  0  0  0  0  0  0  0  0  0
   30.2691   49.5915   76.5029 C   0  0  0  0  0  0  0  0  0  0  0  0
   30.4357   50.5515   75.5258 C   0  0  0  0  0  0  0  0  0  0  0  0
   31.6820   50.8668   75.0236 C   0  0  0  0  0  0  0  0  0  0  0  0
   31.8549   51.7361   74.1355 O   0  0  0  0  0  0  0  0  0  0  0  0
   32.7253   50.1809   75.5447 N   0  0  0  0  0  0  0  0  0  0  0  0
   32.5771   49.2420   76.4981 C   0  0  0  0  0  0  0  0  0  0  0  0
   33.5927   48.6036   76.9763 N   0  0  0  0  0  0  0  0  0  0  0  0
   31.3458   48.9650   76.9601 N   0  0  0  0  0  0  0  0  0  0  0  0
  1  2  1  0
  2  3  1  0
  3  4  1  0
  4  5  2  0
  5  6  1  0
  6  7  2  0
  6  8  1  0
  8  9  1  0
  9 10  2  0
  9 11  1  0
 11  4  1  0
M  CHG  1  10   1
M  END
>  <shape_align_shape_tanimoto>  (1) 
0.46072177877043041

>  <shape_align_color_tanimoto>  (1) 
0.01690240974473994

>  <metric>  (1) 
shape

>  <metric_score>  (1) 
0.461

>  <template_pid>  (1) 
3HVG

>  <template_shape_score>  (1) 
0.461

>  <template_color_score>  (1) 
0.017

>  <template_combo_score>  (1) 
0.239

$$$$
3HVG_color_pose
     RDKit          3D

 11 11  0  0  0  0  0  0  0  0999 V2000
   32.9945   49.0503   78.7562 C   0  0  0  0  0  0  0  0  0  0  0  0
   34.0112   48.6488   77.7097 C   0  0  0  0  0  0  0  0  0  0  0  0
   33.3132   48.2078   76.4284 C   0  0  0  0  0  0  0  0  0  0  0  0
   32.4866   49.3140   75.8814 C   0  0  0  0  0  0  0  0  0  0  0  0
   32.9846   50.2397   74.9837 C   0  0  0  0  0  0  0  0  0  0  0  0
   32.1246   51.2390   74.5319 C   0  0  0  0  0  0  0  0  0  0  0  0
   32.5300   52.1023   73.7165 O   0  0  0  0  0  0  0  0  0  0  0  0
   30.8495   51.2661   74.9827 N   0  0  0  0  0  0  0  0  0  0  0  0
   30.3828   50.3503   75.8612 C   0  0  0  0  0  0  0  0  0  0  0  0
   29.1629   50.4166   76.2614 N   0  0  0  0  0  0  0  0  0  0  0  0
   31.2045   49.3918   76.2958 N   0  0  0  0  0  0  0  0  0  0  0  0
  1  2  1  0
  2  3  1  0
  3  4  1  0
  4  5  2  0
  5  6  1  0
  6  7  2  0
  6  8  1  0
  8  9  1  0
  9 10  2  0
  9 11  1  0
 11  4  1  0
M  CHG  1  10   1
M  END
>  <shape_align_shape_tanimoto>  (2) 
0.41492130103993952

>  <shape_align_color_tanimoto>  (2) 
0.13245813169090445

>  <metric>  (2) 
color

>  <metric_score>  (2) 
0.132

>  <template_pid>  (2) 
3HVG

>  <template_shape_score>  (2) 
0.415

>  <template_color_score>  (2) 
0.132

>  <template_combo_score>  (2) 
0.274

$$$$
3HVG_combo_pose
     RDKit          3D

 11 11  0  0  0  0  0  0  0  0999 V2000
   34.6676   49.4462   77.9199 C   0  0  0  0  0  0  0  0  0  0  0  0
   33.6678   48.3264   77.9682 C   0  0  0  0  0  0  0  0  0  0  0  0
   33.0200   48.0386   76.6419 C   0  0  0  0  0  0  0  0  0  0  0  0
   32.2805   49.1586   76.0644 C   0  0  0  0  0  0  0  0  0  0  0  0
   32.8538   50.0912   75.2212 C   0  0  0  0  0  0  0  0  0  0  0  0
   32.0882   51.1344   74.7067 C   0  0  0  0  0  0  0  0  0  0  0  0
   32.6317   51.9574   73.9512 O   0  0  0  0  0  0  0  0  0  0  0  0
   30.7865   51.2389   75.0285 N   0  0  0  0  0  0  0  0  0  0  0  0
   30.2391   50.3296   75.8470 C   0  0  0  0  0  0  0  0  0  0  0  0
   28.9911   50.4203   76.1623 N   0  0  0  0  0  0  0  0  0  0  0  0
   30.9671   49.3257   76.3448 N   0  0  0  0  0  0  0  0  0  0  0  0
  1  2  1  0
  2  3  1  0
  3  4  1  0
  4  5  2  0
  5  6  1  0
  6  7  2  0
  6  8  1  0
  8  9  1  0
  9 10  2  0
  9 11  1  0
 11  4  1  0
M  CHG  1  10   1
M  END
>  <shape_align_shape_tanimoto>  (3) 
0.41927614242048755

>  <shape_align_color_tanimoto>  (3) 
0.12983658458038985

>  <metric>  (3) 
combo

>  <metric_score>  (3) 
0.275

>  <template_pid>  (3) 
3HVG

>  <template_shape_score>  (3) 
0.419

>  <template_color_score>  (3) 
0.130

>  <template_combo_score>  (3) 
0.275

$$$$
