4TX6_shape_pose
     RDKit          3D

 19 21  0  0  0  0  0  0  0  0999 V2000
   50.5753   50.7628   36.9702 C   0  0  0  0  0  0  0  0  0  0  0  0
   49.1933   50.8785   36.9117 O   0  0  0  0  0  0  0  0  0  0  0  0
   48.2204   50.4039   37.7374 C   0  0  0  0  0  0  0  0  0  0  0  0
   48.4785   49.6671   38.8876 C   0  0  0  0  0  0  0  0  0  0  0  0
   47.4380   49.2053   39.6915 C   0  0  0  0  0  0  0  0  0  0  0  0
   46.1454   49.5054   39.3011 C   0  0  0  0  0  0  0  0  0  0  0  0
   45.8632   50.2402   38.1578 C   0  0  0  0  0  0  0  0  0  0  0  0
   46.8963   50.6931   37.3724 C   0  0  0  0  0  0  0  0  0  0  0  0
   46.7001   51.5146   36.1699 C   0  0  0  0  0  0  0  0  0  0  0  0
   47.1237   52.7913   36.0232 N   0  0  0  0  0  0  0  0  0  0  0  0
   46.8194   53.2265   34.8128 O   0  0  0  0  0  0  0  0  0  0  0  0
   46.2022   52.2453   34.1607 C   0  0  0  0  0  0  0  0  0  0  0  0
   45.7191   52.2514   32.8934 N   0  0  0  0  0  0  0  0  0  0  0  0
   45.1242   51.1122   32.4446 C   0  0  0  0  0  0  0  0  0  0  0  0
   44.5956   51.0952   31.0390 C   0  0  0  0  0  0  0  0  0  0  0  0
   45.0173   50.0085   33.2359 N   0  0  0  0  0  0  0  0  0  0  0  0
   45.4997   50.0285   34.4830 C   0  0  0  0  0  0  0  0  0  0  0  0
   45.4066   49.0212   35.2138 O   0  0  0  0  0  0  0  0  0  0  0  0
   46.1047   51.1402   34.9857 C   0  0  0  0  0  0  0  0  0  0  0  0
  1  2  1  0
  2  3  1  0
  3  4  2  0
  4  5  1  0
  5  6  2  0
  6  7  1  0
  7  8  2  0
  8  9  1  0
  9 10  2  0
 10 11  1  0
 11 12  1  0
 12 13  1  0
 13 14  2  0
 14 15  1  0
 14 16  1  0
 16 17  1  0
 17 18  2  0
 17 19  1  0
  8  3  1  0
 19  9  1  0
 19 12  2  0
M  END
>  <shape_align_shape_tanimoto>  (1) 
0.51297745752981661

>  <shape_align_color_tanimoto>  (1) 
0.00074820202859306488

>  <metric>  (1) 
shape

>  <metric_score>  (1) 
0.513

>  <template_pid>  (1) 
4TX6

>  <template_shape_score>  (1) 
0.513

>  <template_color_score>  (1) 
0.001

>  <template_combo_score>  (1) 
0.257

$$$$
4TX6_color_pose
     RDKit          3D

 19 21  0  0  0  0  0  0  0  0999 V2000
   44.6246   54.4040   30.7154 C   0  0  0  0  0  0  0  0  0  0  0  0
   44.7180   53.0428   30.8760 O   0  0  0  0  0  0  0  0  0  0  0  0
   45.1188   52.2533   31.9013 C   0  0  0  0  0  0  0  0  0  0  0  0
   45.5399   52.7731   33.0901 C   0  0  0  0  0  0  0  0  0  0  0  0
   45.9334   51.8965   34.0749 C   0  0  0  0  0  0  0  0  0  0  0  0
   45.9286   50.5276   33.9301 C   0  0  0  0  0  0  0  0  0  0  0  0
   45.4913   50.0035   32.6996 C   0  0  0  0  0  0  0  0  0  0  0  0
   45.0864   50.8625   31.6890 C   0  0  0  0  0  0  0  0  0  0  0  0
   44.5663   50.3972   30.4099 C   0  0  0  0  0  0  0  0  0  0  0  0
   43.2919   50.6311   29.9697 N   0  0  0  0  0  0  0  0  0  0  0  0
   43.1458   50.1004   28.7892 O   0  0  0  0  0  0  0  0  0  0  0  0
   44.2505   49.5198   28.4023 C   0  0  0  0  0  0  0  0  0  0  0  0
   44.5982   48.8537   27.2944 N   0  0  0  0  0  0  0  0  0  0  0  0
   45.8277   48.3422   27.1299 C   0  0  0  0  0  0  0  0  0  0  0  0
   46.2029   47.6128   25.8731 C   0  0  0  0  0  0  0  0  0  0  0  0
   46.7250   48.5100   28.1158 N   0  0  0  0  0  0  0  0  0  0  0  0
   46.4486   49.1706   29.2644 C   0  0  0  0  0  0  0  0  0  0  0  0
   47.2825   49.3212   30.1672 O   0  0  0  0  0  0  0  0  0  0  0  0
   45.1758   49.6833   29.3992 C   0  0  0  0  0  0  0  0  0  0  0  0
  1  2  1  0
  2  3  1  0
  3  4  2  0
  4  5  1  0
  5  6  2  0
  6  7  1  0
  7  8  2  0
  8  9  1  0
  9 10  2  0
 10 11  1  0
 11 12  1  0
 12 13  1  0
 13 14  2  0
 14 15  1  0
 14 16  1  0
 16 17  1  0
 17 18  2  0
 17 19  1  0
  8  3  1  0
 19  9  1  0
 19 12  2  0
M  END
>  <shape_align_shape_tanimoto>  (2) 
0.50663672848153174

>  <shape_align_color_tanimoto>  (2) 
0.1236733327363755

>  <metric>  (2) 
color

>  <metric_score>  (2) 
0.124

>  <template_pid>  (2) 
4TX6

>  <template_shape_score>  (2) 
0.507

>  <template_color_score>  (2) 
0.124

>  <template_combo_score>  (2) 
0.315

$$$$
4TX6_combo_pose
     RDKit          3D

 19 21  0  0  0  0  0  0  0  0999 V2000
   45.0808   54.3452   31.0081 C   0  0  0  0  0  0  0  0  0  0  0  0
   44.9912   52.9630   31.0634 O   0  0  0  0  0  0  0  0  0  0  0  0
   45.2490   52.0876   32.0705 C   0  0  0  0  0  0  0  0  0  0  0  0
   45.6779   52.4963   33.3281 C   0  0  0  0  0  0  0  0  0  0  0  0
   45.9217   51.5351   34.3127 C   0  0  0  0  0  0  0  0  0  0  0  0
   45.7354   50.1751   34.0267 C   0  0  0  0  0  0  0  0  0  0  0  0
   45.3074   49.7690   32.7694 C   0  0  0  0  0  0  0  0  0  0  0  0
   45.0661   50.7232   31.8027 C   0  0  0  0  0  0  0  0  0  0  0  0
   44.5793   50.3910   30.4711 C   0  0  0  0  0  0  0  0  0  0  0  0
   43.3770   50.8282   29.9925 N   0  0  0  0  0  0  0  0  0  0  0  0
   43.1971   50.4062   28.7831 O   0  0  0  0  0  0  0  0  0  0  0  0
   44.2279   49.6869   28.3880 C   0  0  0  0  0  0  0  0  0  0  0  0
   44.5862   49.0247   27.2759 N   0  0  0  0  0  0  0  0  0  0  0  0
   45.7503   48.3679   27.1874 C   0  0  0  0  0  0  0  0  0  0  0  0
   46.0927   47.6589   25.9062 C   0  0  0  0  0  0  0  0  0  0  0  0
   46.6464   48.3207   28.1950 N   0  0  0  0  0  0  0  0  0  0  0  0
   46.3191   48.9711   29.3190 C   0  0  0  0  0  0  0  0  0  0  0  0
   47.1008   48.9870   30.3279 O   0  0  0  0  0  0  0  0  0  0  0  0
   45.1382   49.6560   29.4521 C   0  0  0  0  0  0  0  0  0  0  0  0
  1  2  1  0
  2  3  1  0
  3  4  2  0
  4  5  1  0
  5  6  2  0
  6  7  1  0
  7  8  2  0
  8  9  1  0
  9 10  2  0
 10 11  1  0
 11 12  1  0
 12 13  1  0
 13 14  2  0
 14 15  1  0
 14 16  1  0
 16 17  1  0
 17 18  2  0
 17 19  1  0
  8  3  1  0
 19  9  1  0
 19 12  2  0
M  END
>  <shape_align_shape_tanimoto>  (3) 
0.51050763458187132

>  <shape_align_color_tanimoto>  (3) 
0.12242044653739848

>  <metric>  (3) 
combo

>  <metric_score>  (3) 
0.316

>  <template_pid>  (3) 
4TX6

>  <template_shape_score>  (3) 
0.511

>  <template_color_score>  (3) 
0.122

>  <template_combo_score>  (3) 
0.316

$$$$
