4YRR_shape_pose
     RDKit          3D

 14 15  0  0  0  0  0  0  0  0999 V2000
   59.7891   69.5384   14.3739 C   0  0  0  0  0  0  0  0  0  0  0  0
   60.5152   68.8984   13.2174 C   0  0  0  0  0  0  0  0  0  0  0  0
   60.2140   67.7082   12.9829 O   0  0  0  0  0  0  0  0  0  0  0  0
   61.4612   69.6302   12.4790 N   0  0  0  0  0  0  0  0  0  0  0  0
   62.2107   69.1636   11.3805 C   0  0  0  0  0  0  0  0  0  0  0  0
   62.1379   67.9016   10.8454 C   0  0  0  0  0  0  0  0  0  0  0  0
   62.8967   67.5155    9.7758 N   0  0  0  0  0  0  0  0  0  0  0  0
   63.7602   68.3504    9.1839 C   0  0  0  0  0  0  0  0  0  0  0  0
   64.5301   67.9469    8.0927 C   0  0  0  0  0  0  0  0  0  0  0  0
   65.3958   68.8754    7.5442 C   0  0  0  0  0  0  0  0  0  0  0  0
   65.4916   70.1675    8.0672 C   0  0  0  0  0  0  0  0  0  0  0  0
   64.7162   70.5485    9.1538 C   0  0  0  0  0  0  0  0  0  0  0  0
   63.8518   69.6258    9.7036 C   0  0  0  0  0  0  0  0  0  0  0  0
   63.0961   70.0379   10.7825 C   0  0  0  0  0  0  0  0  0  0  0  0
  1  2  1  0
  2  3  2  0
  2  4  1  0
  4  5  1  0
  5  6  2  0
  6  7  1  0
  7  8  2  0
  8  9  1  0
  9 10  2  0
 10 11  1  0
 11 12  2  0
 12 13  1  0
 13 14  2  0
 14  5  1  0
 13  8  1  0
M  END
>  <shape_align_shape_tanimoto>  (1) 
0.86678093375309062

>  <shape_align_color_tanimoto>  (1) 
0.066739689361794183

>  <metric>  (1) 
shape

>  <metric_score>  (1) 
0.867

>  <template_pid>  (1) 
4YRR

>  <template_shape_score>  (1) 
0.867

>  <template_color_score>  (1) 
0.067

>  <template_combo_score>  (1) 
0.467

$$$$
4YRR_color_pose
     RDKit          3D

 14 15  0  0  0  0  0  0  0  0999 V2000
   65.1494   67.4065    5.7320 C   0  0  0  0  0  0  0  0  0  0  0  0
   64.4476   67.9892    6.8850 C   0  0  0  0  0  0  0  0  0  0  0  0
   63.2747   68.4127    6.7174 O   0  0  0  0  0  0  0  0  0  0  0  0
   65.0011   68.1107    8.1875 N   0  0  0  0  0  0  0  0  0  0  0  0
   64.1690   68.7041    9.1837 C   0  0  0  0  0  0  0  0  0  0  0  0
   64.1544   70.0658    9.4269 C   0  0  0  0  0  0  0  0  0  0  0  0
   63.3387   70.5783   10.3918 N   0  0  0  0  0  0  0  0  0  0  0  0
   62.5370   69.7507   11.1179 C   0  0  0  0  0  0  0  0  0  0  0  0
   61.6965   70.2303   12.1041 C   0  0  0  0  0  0  0  0  0  0  0  0
   60.8952   69.3587   12.8224 C   0  0  0  0  0  0  0  0  0  0  0  0
   60.9051   67.9987   12.5846 C   0  0  0  0  0  0  0  0  0  0  0  0
   61.7494   67.5080   11.5924 C   0  0  0  0  0  0  0  0  0  0  0  0
   62.5385   68.3887   10.8888 C   0  0  0  0  0  0  0  0  0  0  0  0
   63.3602   67.8253    9.9088 C   0  0  0  0  0  0  0  0  0  0  0  0
  1  2  1  0
  2  3  2  0
  2  4  1  0
  4  5  1  0
  5  6  2  0
  6  7  1  0
  7  8  2  0
  8  9  1  0
  9 10  2  0
 10 11  1  0
 11 12  2  0
 12 13  1  0
 13 14  2  0
 14  5  1  0
 13  8  1  0
M  END
>  <shape_align_shape_tanimoto>  (2) 
0.78449905227544281

>  <shape_align_color_tanimoto>  (2) 
0.11105241551548767

>  <metric>  (2) 
color

>  <metric_score>  (2) 
0.111

>  <template_pid>  (2) 
4YRR

>  <template_shape_score>  (2) 
0.784

>  <template_color_score>  (2) 
0.111

>  <template_combo_score>  (2) 
0.448

$$$$
4YRR_combo_pose
     RDKit          3D

 14 15  0  0  0  0  0  0  0  0999 V2000
   59.7880   69.5464   14.3544 C   0  0  0  0  0  0  0  0  0  0  0  0
   60.5034   68.9020   13.2210 C   0  0  0  0  0  0  0  0  0  0  0  0
   60.2237   67.7107   12.9778 O   0  0  0  0  0  0  0  0  0  0  0  0
   61.4519   69.6229   12.4675 N   0  0  0  0  0  0  0  0  0  0  0  0
   62.1952   69.1405   11.3789 C   0  0  0  0  0  0  0  0  0  0  0  0
   62.1512   67.8988   10.8392 C   0  0  0  0  0  0  0  0  0  0  0  0
   62.9143   67.5240    9.7789 N   0  0  0  0  0  0  0  0  0  0  0  0
   63.7597   68.3786    9.2082 C   0  0  0  0  0  0  0  0  0  0  0  0
   64.5071   67.9425    8.1368 C   0  0  0  0  0  0  0  0  0  0  0  0
   65.3736   68.8416    7.5629 C   0  0  0  0  0  0  0  0  0  0  0  0
   65.4744   70.1233    8.0559 C   0  0  0  0  0  0  0  0  0  0  0  0
   64.7135   70.5447    9.1358 C   0  0  0  0  0  0  0  0  0  0  0  0
   63.8469   69.6462    9.7102 C   0  0  0  0  0  0  0  0  0  0  0  0
   63.0875   70.0418   10.7762 C   0  0  0  0  0  0  0  0  0  0  0  0
  1  2  1  0
  2  3  2  0
  2  4  1  0
  4  5  1  0
  5  6  2  0
  6  7  1  0
  7  8  2  0
  8  9  1  0
  9 10  2  0
 10 11  1  0
 11 12  2  0
 12 13  1  0
 13 14  2  0
 14  5  1  0
 13  8  1  0
M  END
>  <shape_align_shape_tanimoto>  (3) 
0.86663914707847656

>  <shape_align_color_tanimoto>  (3) 
0.068421861823369165

>  <metric>  (3) 
combo

>  <metric_score>  (3) 
0.468

>  <template_pid>  (3) 
4YRR

>  <template_shape_score>  (3) 
0.867

>  <template_color_score>  (3) 
0.068

>  <template_combo_score>  (3) 
0.468

$$$$
