1JGL_shape_pose
     RDKit          3D

 20 23  0  0  0  0  0  0  0  0999 V2000
  -21.6738   40.8412  -12.0899 C   0  0  0  0  0  0  0  0  0  0  0  0
  -20.2754   41.1984  -12.4961 C   0  0  2  0  0  0  0  0  0  0  0  0
  -19.5920   41.9038  -11.3737 C   0  0  0  0  0  0  0  0  0  0  0  0
  -19.5059   43.3922  -11.5422 C   0  0  0  0  0  0  0  0  0  0  0  0
  -20.5517   44.0516  -12.2937 C   0  0  2  0  0  0  0  0  0  0  0  0
  -21.7270   44.5955  -11.5773 C   0  0  0  0  0  0  0  0  0  0  0  0
  -21.8447   44.6661  -10.2131 C   0  0  0  0  0  0  0  0  0  0  0  0
  -22.9798   45.1887   -9.6188 C   0  0  0  0  0  0  0  0  0  0  0  0
  -24.0213   45.6512  -10.4125 C   0  0  0  0  0  0  0  0  0  0  0  0
  -25.1703   46.1799   -9.8326 O   0  0  0  0  0  0  0  0  0  0  0  0
  -23.8915   45.5750  -11.7833 C   0  0  0  0  0  0  0  0  0  0  0  0
  -22.7697   45.0583  -12.3955 C   0  0  0  0  0  0  0  0  0  0  0  0
  -22.7228   45.0182  -13.8530 C   0  0  0  0  0  0  0  0  0  0  0  0
  -21.6800   44.0963  -14.4427 C   0  0  0  0  0  0  0  0  0  0  0  0
  -21.2095   43.1845  -13.3812 C   0  0  1  0  0  0  0  0  0  0  0  0
  -20.2274   42.1453  -13.7028 C   0  0  2  0  0  0  0  0  0  0  0  0
  -20.5120   41.2790  -14.8763 C   0  0  0  0  0  0  0  0  0  0  0  0
  -20.1073   39.9011  -14.4566 C   0  0  0  0  0  0  0  0  0  0  0  0
  -19.5937   39.9922  -13.0213 C   0  0  2  0  0  0  0  0  0  0  0  0
  -20.1219   38.8846  -12.3518 O   0  0  0  0  0  0  0  0  0  0  0  0
  2  1  1  1
  2  3  1  0
  3  4  1  0
  5  4  1  1
  5  6  1  0
  6  7  2  0
  7  8  1  0
  8  9  2  0
  9 10  1  0
  9 11  1  0
 11 12  2  0
 12 13  1  0
 13 14  1  0
 15 14  1  6
 15 16  1  0
 16 17  1  6
 17 18  1  0
 18 19  1  0
 19 20  1  1
 16  2  1  0
 19  2  1  0
 15  5  1  0
 12  6  1  0
M  END
>  <shape_align_shape_tanimoto>  (1) 
0.7964098062604007

>  <shape_align_color_tanimoto>  (1) 
0.17916413155825653

>  <metric>  (1) 
shape

>  <metric_score>  (1) 
0.796

>  <template_pid>  (1) 
1JGL

>  <template_shape_score>  (1) 
0.796

>  <template_color_score>  (1) 
0.179

>  <template_combo_score>  (1) 
0.488

$$$$
1JGL_color_pose
     RDKit          3D

 20 23  0  0  0  0  0  0  0  0999 V2000
  -24.1350   44.1990  -10.5069 C   0  0  0  0  0  0  0  0  0  0  0  0
  -23.5490   45.1689  -11.4862 C   0  0  2  0  0  0  0  0  0  0  0  0
  -23.6027   44.6149  -12.8692 C   0  0  0  0  0  0  0  0  0  0  0  0
  -22.2785   44.6134  -13.5830 C   0  0  0  0  0  0  0  0  0  0  0  0
  -21.1372   44.1010  -12.8141 C   0  0  2  0  0  0  0  0  0  0  0  0
  -20.7644   42.6960  -12.9622 C   0  0  0  0  0  0  0  0  0  0  0  0
  -21.1530   41.8797  -14.0022 C   0  0  0  0  0  0  0  0  0  0  0  0
  -20.7797   40.5526  -14.1064 C   0  0  0  0  0  0  0  0  0  0  0  0
  -19.9787   39.9816  -13.1403 C   0  0  0  0  0  0  0  0  0  0  0  0
  -19.5937   38.6516  -13.2275 O   0  0  0  0  0  0  0  0  0  0  0  0
  -19.5794   40.7813  -12.0923 C   0  0  0  0  0  0  0  0  0  0  0  0
  -19.9620   42.1231  -11.9953 C   0  0  0  0  0  0  0  0  0  0  0  0
  -19.4490   42.8493  -10.8086 C   0  0  0  0  0  0  0  0  0  0  0  0
  -20.0081   44.2436  -10.6585 C   0  0  0  0  0  0  0  0  0  0  0  0
  -21.3358   44.2841  -11.2977 C   0  0  1  0  0  0  0  0  0  0  0  0
  -22.1080   45.5328  -11.1878 C   0  0  2  0  0  0  0  0  0  0  0  0
  -22.2491   46.1379   -9.8377 C   0  0  0  0  0  0  0  0  0  0  0  0
  -23.4300   47.0849  -10.0763 C   0  0  0  0  0  0  0  0  0  0  0  0
  -24.1974   46.4945  -11.2680 C   0  0  2  0  0  0  0  0  0  0  0  0
  -25.5084   46.3232  -10.8473 O   0  0  0  0  0  0  0  0  0  0  0  0
  2  1  1  1
  2  3  1  0
  3  4  1  0
  5  4  1  6
  5  6  1  0
  6  7  2  0
  7  8  1  0
  8  9  2  0
  9 10  1  0
  9 11  1  0
 11 12  2  0
 12 13  1  0
 13 14  1  0
 15 14  1  1
 15 16  1  0
 16 17  1  1
 17 18  1  0
 18 19  1  0
 19 20  1  1
 16  2  1  0
 19  2  1  0
 15  5  1  0
 12  6  1  0
M  END
>  <shape_align_shape_tanimoto>  (2) 
0.75123503489091237

>  <shape_align_color_tanimoto>  (2) 
0.2216755111250156

>  <metric>  (2) 
color

>  <metric_score>  (2) 
0.222

>  <template_pid>  (2) 
1JGL

>  <template_shape_score>  (2) 
0.751

>  <template_color_score>  (2) 
0.222

>  <template_combo_score>  (2) 
0.486

$$$$
1JGL_combo_pose
     RDKit          3D

 20 23  0  0  0  0  0  0  0  0999 V2000
  -24.3909   43.9834  -11.4457 C   0  0  0  0  0  0  0  0  0  0  0  0
  -23.5451   45.1541  -11.8757 C   0  0  2  0  0  0  0  0  0  0  0  0
  -23.2600   45.1038  -13.3202 C   0  0  0  0  0  0  0  0  0  0  0  0
  -21.8335   44.8144  -13.6882 C   0  0  0  0  0  0  0  0  0  0  0  0
  -21.0058   44.1343  -12.7150 C   0  0  2  0  0  0  0  0  0  0  0  0
  -20.7307   42.6840  -12.9154 C   0  0  0  0  0  0  0  0  0  0  0  0
  -21.3368   41.9072  -13.8680 C   0  0  0  0  0  0  0  0  0  0  0  0
  -20.9672   40.5602  -13.9131 C   0  0  0  0  0  0  0  0  0  0  0  0
  -20.0277   40.0482  -13.0262 C   0  0  0  0  0  0  0  0  0  0  0  0
  -19.6890   38.6967  -13.1076 O   0  0  0  0  0  0  0  0  0  0  0  0
  -19.4232   40.8379  -12.0708 C   0  0  0  0  0  0  0  0  0  0  0  0
  -19.7787   42.1571  -12.0195 C   0  0  0  0  0  0  0  0  0  0  0  0
  -19.2211   43.1410  -11.0570 C   0  0  0  0  0  0  0  0  0  0  0  0
  -20.2516   44.0118  -10.3870 C   0  0  0  0  0  0  0  0  0  0  0  0
  -21.4520   44.1675  -11.2783 C   0  0  1  0  0  0  0  0  0  0  0  0
  -22.3009   45.3536  -11.0441 C   0  0  2  0  0  0  0  0  0  0  0  0
  -22.8679   45.4933   -9.6767 C   0  0  0  0  0  0  0  0  0  0  0  0
  -24.1472   46.2843   -9.9030 C   0  0  0  0  0  0  0  0  0  0  0  0
  -24.3310   46.3863  -11.4202 C   0  0  2  0  0  0  0  0  0  0  0  0
  -25.6866   46.2567  -11.7482 O   0  0  0  0  0  0  0  0  0  0  0  0
  2  1  1  1
  2  3  1  0
  3  4  1  0
  5  4  1  6
  5  6  1  0
  6  7  2  0
  7  8  1  0
  8  9  2  0
  9 10  1  0
  9 11  1  0
 11 12  2  0
 12 13  1  0
 13 14  1  0
 15 14  1  1
 15 16  1  0
 16 17  1  1
 17 18  1  0
 18 19  1  0
 19 20  1  1
 16  2  1  0
 19  2  1  0
 15  5  1  0
 12  6  1  0
M  END
>  <shape_align_shape_tanimoto>  (3) 
0.78688726926826424

>  <shape_align_color_tanimoto>  (3) 
0.20278334558483871

>  <metric>  (3) 
combo

>  <metric_score>  (3) 
0.495

>  <template_pid>  (3) 
1JGL

>  <template_shape_score>  (3) 
0.787

>  <template_color_score>  (3) 
0.203

>  <template_combo_score>  (3) 
0.495

$$$$
