3H22_shape_pose
     RDKit          3D

 11 11  0  0  0  0  0  0  0  0999 V2000
  -76.8378   85.7340   94.5928 N   0  0  0  0  0  0  0  0  0  0  0  0
  -77.5796   85.1932   93.6673 C   0  0  0  0  0  0  0  0  0  0  0  0
  -78.6143   85.9413   93.0792 N   0  0  0  0  0  0  0  0  0  0  0  0
  -79.2667   85.4714   91.9051 C   0  0  0  0  0  0  0  0  0  0  0  0
  -80.2177   86.1485   91.3559 N   0  0  0  0  0  0  0  0  0  0  0  0
  -78.8491   84.2439   91.3526 N   0  0  0  0  0  0  0  0  0  0  0  0
  -77.8170   83.4747   91.9197 C   0  0  0  0  0  0  0  0  0  0  0  0
  -77.2865   82.4834   91.3164 O   0  0  0  0  0  0  0  0  0  0  0  0
  -77.2886   83.7904   93.2747 C   0  0  0  0  0  0  0  0  0  0  0  0
  -75.8614   83.6165   93.2431 N   0  0  0  0  0  0  0  0  0  0  0  0
  -75.2630   84.0142   94.1975 O   0  0  0  0  0  0  0  0  0  0  0  0
  1  2  2  0
  2  3  1  0
  3  4  1  0
  4  5  2  0
  4  6  1  0
  6  7  1  0
  7  8  2  0
  7  9  1  0
  9 10  1  0
 10 11  2  0
  9  2  1  0
M  CHG  1   5   1
M  END
>  <shape_align_shape_tanimoto>  (1) 
0.91253703859176938

>  <shape_align_color_tanimoto>  (1) 
0.25637311274896613

>  <metric>  (1) 
shape

>  <metric_score>  (1) 
0.913

>  <template_pid>  (1) 
3H22

>  <template_shape_score>  (1) 
0.913

>  <template_color_score>  (1) 
0.256

>  <template_combo_score>  (1) 
0.584

$$$$
3H22_color_pose
     RDKit          3D

 11 11  0  0  0  0  0  0  0  0999 V2000
  -77.5891   82.3276   91.6539 N   0  0  0  0  0  0  0  0  0  0  0  0
  -77.7642   83.5883   91.8778 C   0  0  0  0  0  0  0  0  0  0  0  0
  -78.9166   84.2532   91.3241 N   0  0  0  0  0  0  0  0  0  0  0  0
  -79.3429   85.4579   91.9301 C   0  0  0  0  0  0  0  0  0  0  0  0
  -80.3673   86.0977   91.4791 N   0  0  0  0  0  0  0  0  0  0  0  0
  -78.6302   85.9642   93.0485 N   0  0  0  0  0  0  0  0  0  0  0  0
  -77.4967   85.2938   93.5792 C   0  0  0  0  0  0  0  0  0  0  0  0
  -77.0875   85.5017   94.7680 O   0  0  0  0  0  0  0  0  0  0  0  0
  -76.7728   84.3155   92.6992 C   0  0  0  0  0  0  0  0  0  0  0  0
  -76.0286   83.3749   93.4807 N   0  0  0  0  0  0  0  0  0  0  0  0
  -75.4933   83.7417   94.4957 O   0  0  0  0  0  0  0  0  0  0  0  0
  1  2  2  0
  2  3  1  0
  3  4  1  0
  4  5  2  0
  4  6  1  0
  6  7  1  0
  7  8  2  0
  7  9  1  0
  9 10  1  0
 10 11  2  0
  9  2  1  0
M  CHG  1   5   1
M  END
>  <shape_align_shape_tanimoto>  (2) 
0.90429369247452873

>  <shape_align_color_tanimoto>  (2) 
0.3531400762492653

>  <metric>  (2) 
color

>  <metric_score>  (2) 
0.353

>  <template_pid>  (2) 
3H22

>  <template_shape_score>  (2) 
0.904

>  <template_color_score>  (2) 
0.353

>  <template_combo_score>  (2) 
0.629

$$$$
3H22_combo_pose
     RDKit          3D

 11 11  0  0  0  0  0  0  0  0999 V2000
  -77.5891   82.3276   91.6539 N   0  0  0  0  0  0  0  0  0  0  0  0
  -77.7642   83.5883   91.8778 C   0  0  0  0  0  0  0  0  0  0  0  0
  -78.9166   84.2532   91.3241 N   0  0  0  0  0  0  0  0  0  0  0  0
  -79.3429   85.4579   91.9301 C   0  0  0  0  0  0  0  0  0  0  0  0
  -80.3673   86.0977   91.4791 N   0  0  0  0  0  0  0  0  0  0  0  0
  -78.6302   85.9642   93.0485 N   0  0  0  0  0  0  0  0  0  0  0  0
  -77.4967   85.2938   93.5792 C   0  0  0  0  0  0  0  0  0  0  0  0
  -77.0875   85.5017   94.7680 O   0  0  0  0  0  0  0  0  0  0  0  0
  -76.7728   84.3155   92.6992 C   0  0  0  0  0  0  0  0  0  0  0  0
  -76.0286   83.3749   93.4807 N   0  0  0  0  0  0  0  0  0  0  0  0
  -75.4933   83.7417   94.4957 O   0  0  0  0  0  0  0  0  0  0  0  0
  1  2  2  0
  2  3  1  0
  3  4  1  0
  4  5  2  0
  4  6  1  0
  6  7  1  0
  7  8  2  0
  7  9  1  0
  9 10  1  0
 10 11  2  0
  9  2  1  0
M  CHG  1   5   1
M  END
>  <shape_align_shape_tanimoto>  (3) 
0.90429369247452873

>  <shape_align_color_tanimoto>  (3) 
0.3531400762492653

>  <metric>  (3) 
combo

>  <metric_score>  (3) 
0.629

>  <template_pid>  (3) 
3H22

>  <template_shape_score>  (3) 
0.904

>  <template_color_score>  (3) 
0.353

>  <template_combo_score>  (3) 
0.629

$$$$
