4LH6_shape_pose
     RDKit          3D

 14 15  0  0  0  0  0  0  0  0999 V2000
   26.2428   22.6320    8.4251 N   0  0  0  0  0  0  0  0  0  0  0  0
   26.2443   21.2884    7.9592 C   0  0  0  0  0  0  0  0  0  0  0  0
   25.7220   20.9737    6.8639 O   0  0  0  0  0  0  0  0  0  0  0  0
   26.8536   20.2157    8.7343 C   0  0  0  0  0  0  0  0  0  0  0  0
   26.8283   18.9322    8.2388 C   0  0  0  0  0  0  0  0  0  0  0  0
   27.4135   17.9918    9.0146 N   0  0  0  0  0  0  0  0  0  0  0  0
   27.9858   18.2350   10.1787 C   0  0  0  0  0  0  0  0  0  0  0  0
   28.5604   17.1089   10.8698 N   0  0  0  0  0  0  0  0  0  0  0  0
   28.0519   19.5195   10.7516 C   0  0  0  0  0  0  0  0  0  0  0  0
   28.5786   19.9172   11.8837 C   0  0  0  0  0  0  0  0  0  0  0  0
   28.5346   21.2577   12.2685 C   0  0  0  0  0  0  0  0  0  0  0  0
   29.1487   22.1490   13.7376 Br  0  0  0  0  0  0  0  0  0  0  0  0
   27.6197   22.0521   10.8200 S   0  0  0  0  0  0  0  0  0  0  0  0
   27.4264   20.4975    9.9130 C   0  0  0  0  0  0  0  0  0  0  0  0
  1  2  1  0
  2  3  2  0
  2  4  1  0
  4  5  2  0
  5  6  1  0
  6  7  2  0
  7  8  1  0
  7  9  1  0
  9 10  1  0
 10 11  2  0
 11 12  1  0
 11 13  1  0
 13 14  1  0
 14  4  1  0
 14  9  2  0
M  END
>  <shape_align_shape_tanimoto>  (1) 
0.84520610621429948

>  <shape_align_color_tanimoto>  (1) 
0.15352553990090714

>  <metric>  (1) 
shape

>  <metric_score>  (1) 
0.845

>  <template_pid>  (1) 
4LH6

>  <template_shape_score>  (1) 
0.845

>  <template_color_score>  (1) 
0.154

>  <template_combo_score>  (1) 
0.499

$$$$
4LH6_color_pose
     RDKit          3D

 14 15  0  0  0  0  0  0  0  0999 V2000
   29.1732   21.2360   13.4630 N   0  0  0  0  0  0  0  0  0  0  0  0
   28.4868   21.4437   12.2361 C   0  0  0  0  0  0  0  0  0  0  0  0
   28.1250   22.6019   11.9499 O   0  0  0  0  0  0  0  0  0  0  0  0
   28.2513   20.2778   11.3899 C   0  0  0  0  0  0  0  0  0  0  0  0
   28.6832   18.9999   11.7676 C   0  0  0  0  0  0  0  0  0  0  0  0
   28.3961   18.0261   10.8899 N   0  0  0  0  0  0  0  0  0  0  0  0
   27.7530   18.1841    9.7277 C   0  0  0  0  0  0  0  0  0  0  0  0
   27.5467   17.0204    8.9374 N   0  0  0  0  0  0  0  0  0  0  0  0
   27.2972   19.4530    9.3016 C   0  0  0  0  0  0  0  0  0  0  0  0
   26.6489   19.7471    8.1764 C   0  0  0  0  0  0  0  0  0  0  0  0
   26.2933   21.0860    7.9638 C   0  0  0  0  0  0  0  0  0  0  0  0
   25.4066   21.9548    6.5852 Br  0  0  0  0  0  0  0  0  0  0  0  0
   26.9560   21.9369    9.5098 S   0  0  0  0  0  0  0  0  0  0  0  0
   27.5776   20.4746   10.1831 C   0  0  0  0  0  0  0  0  0  0  0  0
  1  2  1  0
  2  3  2  0
  2  4  1  0
  4  5  2  0
  5  6  1  0
  6  7  2  0
  7  8  1  0
  7  9  1  0
  9 10  1  0
 10 11  2  0
 11 12  1  0
 11 13  1  0
 13 14  1  0
 14  4  1  0
 14  9  2  0
M  END
>  <shape_align_shape_tanimoto>  (2) 
0.83062324429223555

>  <shape_align_color_tanimoto>  (2) 
0.1953855909061688

>  <metric>  (2) 
color

>  <metric_score>  (2) 
0.195

>  <template_pid>  (2) 
4LH6

>  <template_shape_score>  (2) 
0.831

>  <template_color_score>  (2) 
0.195

>  <template_combo_score>  (2) 
0.513

$$$$
4LH6_combo_pose
     RDKit          3D

 14 15  0  0  0  0  0  0  0  0999 V2000
   29.1732   21.2360   13.4630 N   0  0  0  0  0  0  0  0  0  0  0  0
   28.4868   21.4437   12.2361 C   0  0  0  0  0  0  0  0  0  0  0  0
   28.1250   22.6019   11.9499 O   0  0  0  0  0  0  0  0  0  0  0  0
   28.2513   20.2778   11.3899 C   0  0  0  0  0  0  0  0  0  0  0  0
   28.6832   18.9999   11.7676 C   0  0  0  0  0  0  0  0  0  0  0  0
   28.3961   18.0261   10.8899 N   0  0  0  0  0  0  0  0  0  0  0  0
   27.7530   18.1841    9.7277 C   0  0  0  0  0  0  0  0  0  0  0  0
   27.5467   17.0204    8.9374 N   0  0  0  0  0  0  0  0  0  0  0  0
   27.2972   19.4530    9.3016 C   0  0  0  0  0  0  0  0  0  0  0  0
   26.6489   19.7471    8.1764 C   0  0  0  0  0  0  0  0  0  0  0  0
   26.2933   21.0860    7.9638 C   0  0  0  0  0  0  0  0  0  0  0  0
   25.4066   21.9548    6.5852 Br  0  0  0  0  0  0  0  0  0  0  0  0
   26.9560   21.9369    9.5098 S   0  0  0  0  0  0  0  0  0  0  0  0
   27.5776   20.4746   10.1831 C   0  0  0  0  0  0  0  0  0  0  0  0
  1  2  1  0
  2  3  2  0
  2  4  1  0
  4  5  2  0
  5  6  1  0
  6  7  2  0
  7  8  1  0
  7  9  1  0
  9 10  1  0
 10 11  2  0
 11 12  1  0
 11 13  1  0
 13 14  1  0
 14  4  1  0
 14  9  2  0
M  END
>  <shape_align_shape_tanimoto>  (3) 
0.83062324429223555

>  <shape_align_color_tanimoto>  (3) 
0.1953855909061688

>  <metric>  (3) 
combo

>  <metric_score>  (3) 
0.513

>  <template_pid>  (3) 
4LH6

>  <template_shape_score>  (3) 
0.831

>  <template_color_score>  (3) 
0.195

>  <template_combo_score>  (3) 
0.513

$$$$
