6D08_shape_pose
     RDKit          3D

 69 69  0  0  0  0  0  0  0  0999 V2000
   17.2158   10.9841   -1.4860 C   0  0  0  0  0  0  0  0  0  0  0  0
   17.2541   11.6067   -0.0994 C   0  0  2  0  0  0  0  0  0  0  0  0
   18.5569   11.3802    0.5693 N   0  0  0  0  0  0  0  0  0  0  0  0
   16.1489   10.9955    0.7771 C   0  0  0  0  0  0  0  0  0  0  0  0
   16.5062   10.4448    1.8676 O   0  0  0  0  0  0  0  0  0  0  0  0
   14.7485   11.0627    0.3504 N   0  0  0  0  0  0  0  0  0  0  0  0
   13.7402   10.4880    1.2168 C   0  0  1  0  0  0  0  0  0  0  0  0
   13.0900   11.4062    2.2126 C   0  0  0  0  0  0  0  0  0  0  0  0
   12.3873   12.6448    1.7584 C   0  0  0  0  0  0  0  0  0  0  0  0
   13.2063   13.7312    1.1080 C   0  0  0  0  0  0  0  0  0  0  0  0
   12.2424   14.9059    0.7354 C   0  0  0  0  0  0  0  0  0  0  0  0
   13.0154   16.0120    0.1237 N   0  0  0  0  0  0  0  0  0  0  0  0
   12.7997    9.4968    0.5434 C   0  0  0  0  0  0  0  0  0  0  0  0
   12.7955    9.3390   -0.7355 O   0  0  0  0  0  0  0  0  0  0  0  0
   11.9408    8.7681    1.4324 N   0  0  0  0  0  0  0  0  0  0  0  0
   10.9349    7.7230    0.9001 C   0  0  1  0  0  0  0  0  0  0  0  0
   11.5325    6.3727    1.1621 C   0  0  0  0  0  0  0  0  0  0  0  0
   10.9033    5.0822    0.7720 C   0  0  0  0  0  0  0  0  0  0  0  0
    9.6532    4.6138    1.4027 C   0  0  0  0  0  0  0  0  0  0  0  0
    8.8939    3.5780    0.6713 N   0  0  0  0  0  0  0  0  0  0  0  0
    9.1489    4.9864    2.4995 O   0  0  0  0  0  0  0  0  0  0  0  0
    9.6186    8.1500    1.3703 C   0  0  0  0  0  0  0  0  0  0  0  0
    9.6730    9.2612    2.1459 O   0  0  0  0  0  0  0  0  0  0  0  0
    8.2817    7.6903    1.2100 N   0  0  0  0  0  0  0  0  0  0  0  0
    7.2130    8.4827    1.8526 C   0  0  2  0  0  0  0  0  0  0  0  0
    7.2453    8.3912    3.3714 C   0  0  0  0  0  0  0  0  0  0  0  0
    7.9440    7.4287    3.8477 O   0  0  0  0  0  0  0  0  0  0  0  0
    6.5462    9.3454    4.1627 N   0  0  0  0  0  0  0  0  0  0  0  0
    6.4691    9.4770    5.6086 C   0  0  1  0  0  0  0  0  0  0  0  0
    7.6717    8.6299    6.1940 C   0  0  0  0  0  0  0  0  0  0  0  0
    6.7156   10.9149    6.0566 C   0  0  0  0  0  0  0  0  0  0  0  0
    6.7284   11.2683    7.2776 O   0  0  0  0  0  0  0  0  0  0  0  0
    6.9493   11.8782    5.0303 N   0  0  0  0  0  0  0  0  0  0  0  0
    7.2556   13.2948    5.1094 C   0  0  1  0  0  0  0  0  0  0  0  0
    7.9520   13.8271    3.8789 C   0  0  0  0  0  0  0  0  0  0  0  0
    7.1644   13.6899    2.5837 C   0  0  0  0  0  0  0  0  0  0  0  0
    7.9014   14.2391    1.3362 C   0  0  0  0  0  0  0  0  0  0  0  0
    7.0203   14.0639    0.1588 N   0  0  0  0  0  0  0  0  0  0  0  0
    7.3419   14.4357   -1.1734 C   0  0  0  0  0  0  0  0  0  0  0  0
    6.5114   14.2672   -2.3304 N   0  0  0  0  0  0  0  0  0  0  0  0
    8.5423   14.9835   -1.3681 N   0  0  0  0  0  0  0  0  0  0  0  0
    6.0910   14.1564    5.6259 C   0  0  0  0  0  0  0  0  0  0  0  0
    5.0406   13.6306    6.1315 O   0  0  0  0  0  0  0  0  0  0  0  0
    6.1981   15.5722    5.5340 N   0  0  0  0  0  0  0  0  0  0  0  0
    5.2720   16.5974    5.9697 C   0  0  1  0  0  0  0  0  0  0  0  0
    5.9475   17.9699    6.1479 C   0  0  0  0  0  0  0  0  0  0  0  0
    7.0465   17.9658    7.1579 C   0  0  0  0  0  0  0  0  0  0  0  0
    7.8018   19.2467    7.3597 C   0  0  0  0  0  0  0  0  0  0  0  0
    8.6657   19.8373    6.3071 C   0  0  0  0  0  0  0  0  0  0  0  0
    8.2102   20.2862    5.0250 N   0  0  0  0  0  0  0  0  0  0  0  0
    7.4568   21.5609    5.0360 C   0  0  0  0  0  0  0  0  0  0  0  0
    6.1471   21.4592    4.3227 C   0  0  0  0  0  0  0  0  0  0  0  0
    5.0055   21.1706    5.0690 C   0  0  0  0  0  0  0  0  0  0  0  0
    3.7434   21.0568    4.4882 C   0  0  0  0  0  0  0  0  0  0  0  0
    3.5618   21.2301    3.1031 C   0  0  0  0  0  0  0  0  0  0  0  0
    4.7036   21.5233    2.3258 C   0  0  0  0  0  0  0  0  0  0  0  0
    5.9919   21.6367    2.9340 C   0  0  0  0  0  0  0  0  0  0  0  0
    4.1141   16.8253    4.9747 C   0  0  0  0  0  0  0  0  0  0  0  0
    3.3938   17.8596    5.1099 O   0  0  0  0  0  0  0  0  0  0  0  0
    3.8227   15.9108    3.9118 N   0  0  0  0  0  0  0  0  0  0  0  0
    2.7257   16.1527    2.9502 C   0  0  1  0  0  0  0  0  0  0  0  0
    3.0417   15.7111    1.5352 C   0  0  0  0  0  0  0  0  0  0  0  0
    1.9175   16.0022    0.7009 O   0  0  0  0  0  0  0  0  0  0  0  0
    1.4673   15.4142    3.4089 C   0  0  0  0  0  0  0  0  0  0  0  0
    0.9114   15.9115    4.4656 O   0  0  0  0  0  0  0  0  0  0  0  0
    0.9586   14.2877    2.7334 O   0  0  0  0  0  0  0  0  0  0  0  0
    5.8509    8.3630    1.2149 C   0  0  1  0  0  0  0  0  0  0  0  0
    5.3431    6.9161    1.1457 C   0  0  0  0  0  0  0  0  0  0  0  0
    4.8606    9.1422    1.8583 O   0  0  0  0  0  0  0  0  0  0  0  0
  2  1  1  6
  2  3  1  0
  2  4  1  0
  4  5  2  0
  4  6  1  0
  6  7  1  0
  7  8  1  6
  8  9  1  0
  9 10  1  0
 10 11  1  0
 11 12  1  0
  7 13  1  0
 13 14  2  0
 13 15  1  0
 15 16  1  0
 16 17  1  1
 17 18  1  0
 18 19  1  0
 19 20  1  0
 19 21  2  0
 16 22  1  0
 22 23  2  0
 22 24  1  0
 25 24  1  6
 25 26  1  0
 26 27  2  0
 26 28  1  0
 28 29  1  0
 29 30  1  1
 29 31  1  0
 31 32  2  0
 31 33  1  0
 33 34  1  0
 34 35  1  6
 35 36  1  0
 36 37  1  0
 37 38  1  0
 38 39  1  0
 39 40  1  0
 39 41  2  0
 34 42  1  0
 42 43  2  0
 42 44  1  0
 44 45  1  0
 45 46  1  6
 46 47  1  0
 47 48  1  0
 48 49  1  0
 49 50  1  0
 50 51  1  0
 51 52  1  0
 52 53  2  0
 53 54  1  0
 54 55  2  0
 55 56  1  0
 56 57  2  0
 45 58  1  0
 58 59  2  0
 58 60  1  0
 60 61  1  0
 61 62  1  6
 62 63  1  0
 61 64  1  0
 64 65  2  0
 64 66  1  0
 25 67  1  0
 67 68  1  1
 67 69  1  0
 57 52  1  0
M  CHG  5   3   1  12   1  41   1  50   1  66  -1
M  END
>  <shape_align_shape_tanimoto>  (1) 
0.34796760438765945

>  <shape_align_color_tanimoto>  (1) 
0.022079674661998897

>  <metric>  (1) 
shape

>  <metric_score>  (1) 
0.348

>  <template_pid>  (1) 
6D08

>  <template_shape_score>  (1) 
0.348

>  <template_color_score>  (1) 
0.022

>  <template_combo_score>  (1) 
0.185

$$$$
6D08_color_pose
     RDKit          3D

 69 69  0  0  0  0  0  0  0  0999 V2000
    4.4096   22.2365    6.2558 C   0  0  0  0  0  0  0  0  0  0  0  0
    4.2366   22.2848    4.7587 C   0  0  2  0  0  0  0  0  0  0  0  0
    2.8039   22.1533    4.4217 N   0  0  0  0  0  0  0  0  0  0  0  0
    4.9458   21.2012    4.0486 C   0  0  0  0  0  0  0  0  0  0  0  0
    4.2443   20.4131    3.3003 O   0  0  0  0  0  0  0  0  0  0  0  0
    6.3720   20.9694    4.1379 N   0  0  0  0  0  0  0  0  0  0  0  0
    6.8945   19.8596    3.3679 C   0  0  1  0  0  0  0  0  0  0  0  0
    8.2219   20.1845    2.7512 C   0  0  0  0  0  0  0  0  0  0  0  0
    8.2615   21.3169    1.7669 C   0  0  0  0  0  0  0  0  0  0  0  0
    7.8535   22.6712    2.2923 C   0  0  0  0  0  0  0  0  0  0  0  0
    8.0013   23.6817    1.1124 C   0  0  0  0  0  0  0  0  0  0  0  0
    7.6150   25.0097    1.5262 N   0  0  0  0  0  0  0  0  0  0  0  0
    7.0821   18.6072    4.1892 C   0  0  0  0  0  0  0  0  0  0  0  0
    7.4480   17.5746    3.5217 O   0  0  0  0  0  0  0  0  0  0  0  0
    6.8736   18.5385    5.6015 N   0  0  0  0  0  0  0  0  0  0  0  0
    7.0698   17.2288    6.2192 C   0  0  1  0  0  0  0  0  0  0  0  0
    8.4731   17.1778    6.8790 C   0  0  0  0  0  0  0  0  0  0  0  0
    9.6013   17.3883    5.9184 C   0  0  0  0  0  0  0  0  0  0  0  0
   10.9207   17.3230    6.6423 C   0  0  0  0  0  0  0  0  0  0  0  0
   12.1767   17.5902    6.0538 N   0  0  0  0  0  0  0  0  0  0  0  0
   10.8608   16.9972    7.8759 O   0  0  0  0  0  0  0  0  0  0  0  0
    6.1135   16.9335    7.3253 C   0  0  0  0  0  0  0  0  0  0  0  0
    5.4129   17.8369    7.8504 O   0  0  0  0  0  0  0  0  0  0  0  0
    6.0378   15.5479    7.7645 N   0  0  0  0  0  0  0  0  0  0  0  0
    5.1547   15.1985    8.8779 C   0  0  2  0  0  0  0  0  0  0  0  0
    5.4743   13.8874    9.5010 C   0  0  0  0  0  0  0  0  0  0  0  0
    5.2268   13.6791   10.7408 O   0  0  0  0  0  0  0  0  0  0  0  0
    6.0605   12.8515    8.6883 N   0  0  0  0  0  0  0  0  0  0  0  0
    6.4486   11.5454    9.1415 C   0  0  1  0  0  0  0  0  0  0  0  0
    5.1128   10.8331    9.6108 C   0  0  0  0  0  0  0  0  0  0  0  0
    7.0440   10.7537    8.0634 C   0  0  0  0  0  0  0  0  0  0  0  0
    7.7634    9.7345    8.3302 O   0  0  0  0  0  0  0  0  0  0  0  0
    6.8415   11.0766    6.7043 N   0  0  0  0  0  0  0  0  0  0  0  0
    7.4550   10.2736    5.5652 C   0  0  1  0  0  0  0  0  0  0  0  0
    6.3356    9.4408    4.9851 C   0  0  0  0  0  0  0  0  0  0  0  0
    6.6668    8.5301    3.8428 C   0  0  0  0  0  0  0  0  0  0  0  0
    7.7316    7.5296    4.2292 C   0  0  0  0  0  0  0  0  0  0  0  0
    8.0401    6.4876    3.2844 N   0  0  0  0  0  0  0  0  0  0  0  0
    8.5230    6.6076    1.9682 C   0  0  0  0  0  0  0  0  0  0  0  0
    8.7481    5.3615    1.2429 N   0  0  0  0  0  0  0  0  0  0  0  0
    8.7826    7.7012    1.3596 N   0  0  0  0  0  0  0  0  0  0  0  0
    7.9310   11.3548    4.6422 C   0  0  0  0  0  0  0  0  0  0  0  0
    7.5286   12.5400    5.0054 O   0  0  0  0  0  0  0  0  0  0  0  0
    8.7293   11.1787    3.4902 N   0  0  0  0  0  0  0  0  0  0  0  0
    9.1752   12.1715    2.5614 C   0  0  1  0  0  0  0  0  0  0  0  0
    8.5000   13.5400    2.6482 C   0  0  0  0  0  0  0  0  0  0  0  0
    7.0479   13.4193    2.2980 C   0  0  0  0  0  0  0  0  0  0  0  0
    6.2482   14.7090    2.4217 C   0  0  0  0  0  0  0  0  0  0  0  0
    4.8007   14.3712    2.0083 C   0  0  0  0  0  0  0  0  0  0  0  0
    4.0233   15.5985    2.1148 N   0  0  0  0  0  0  0  0  0  0  0  0
    2.6850   15.3391    1.5993 C   0  0  0  0  0  0  0  0  0  0  0  0
    1.7559   15.1062    2.7513 C   0  0  0  0  0  0  0  0  0  0  0  0
    1.0652   16.1758    3.3576 C   0  0  0  0  0  0  0  0  0  0  0  0
    0.2095   15.9521    4.4232 C   0  0  0  0  0  0  0  0  0  0  0  0
    0.0426   14.6426    4.8883 C   0  0  0  0  0  0  0  0  0  0  0  0
    0.7292   13.6133    4.2783 C   0  0  0  0  0  0  0  0  0  0  0  0
    1.5833   13.8298    3.2159 C   0  0  0  0  0  0  0  0  0  0  0  0
   10.6049   12.2259    2.2303 C   0  0  0  0  0  0  0  0  0  0  0  0
   10.9686   13.1508    1.3992 O   0  0  0  0  0  0  0  0  0  0  0  0
   11.5928   11.3162    2.7793 N   0  0  0  0  0  0  0  0  0  0  0  0
   12.9793   11.5071    2.3353 C   0  0  1  0  0  0  0  0  0  0  0  0
   13.9567   11.6995    3.4797 C   0  0  0  0  0  0  0  0  0  0  0  0
   15.2580   11.8786    2.9532 O   0  0  0  0  0  0  0  0  0  0  0  0
   13.4074   10.3476    1.4610 C   0  0  0  0  0  0  0  0  0  0  0  0
   12.7772    9.2492    1.4520 O   0  0  0  0  0  0  0  0  0  0  0  0
   14.5259   10.4710    0.6324 O   0  0  0  0  0  0  0  0  0  0  0  0
    3.6947   15.0377    8.2814 C   0  0  1  0  0  0  0  0  0  0  0  0
    2.7469   14.6113    9.3984 C   0  0  0  0  0  0  0  0  0  0  0  0
    3.3144   16.2391    7.7129 O   0  0  0  0  0  0  0  0  0  0  0  0
  2  1  1  1
  2  3  1  0
  2  4  1  0
  4  5  2  0
  4  6  1  0
  6  7  1  0
  7  8  1  1
  8  9  1  0
  9 10  1  0
 10 11  1  0
 11 12  1  0
  7 13  1  0
 13 14  2  0
 13 15  1  0
 15 16  1  0
 16 17  1  1
 17 18  1  0
 18 19  1  0
 19 20  1  0
 19 21  2  0
 16 22  1  0
 22 23  2  0
 22 24  1  0
 25 24  1  6
 25 26  1  0
 26 27  2  0
 26 28  1  0
 28 29  1  0
 29 30  1  6
 29 31  1  0
 31 32  2  0
 31 33  1  0
 33 34  1  0
 34 35  1  6
 35 36  1  0
 36 37  1  0
 37 38  1  0
 38 39  1  0
 39 40  1  0
 39 41  2  0
 34 42  1  0
 42 43  2  0
 42 44  1  0
 44 45  1  0
 45 46  1  1
 46 47  1  0
 47 48  1  0
 48 49  1  0
 49 50  1  0
 50 51  1  0
 51 52  1  0
 52 53  2  0
 53 54  1  0
 54 55  2  0
 55 56  1  0
 56 57  2  0
 45 58  1  0
 58 59  2  0
 58 60  1  0
 60 61  1  0
 61 62  1  1
 62 63  1  0
 61 64  1  0
 64 65  2  0
 64 66  1  0
 25 67  1  0
 67 68  1  1
 67 69  1  0
 57 52  1  0
M  CHG  5   3   1  12   1  41   1  50   1  66  -1
M  END
>  <shape_align_shape_tanimoto>  (2) 
0.24770456754505157

>  <shape_align_color_tanimoto>  (2) 
0.053315720645715978

>  <metric>  (2) 
color

>  <metric_score>  (2) 
0.053

>  <template_pid>  (2) 
6D08

>  <template_shape_score>  (2) 
0.248

>  <template_color_score>  (2) 
0.053

>  <template_combo_score>  (2) 
0.151

$$$$
6D08_combo_pose
     RDKit          3D

 69 69  0  0  0  0  0  0  0  0999 V2000
   17.2158   10.9841   -1.4860 C   0  0  0  0  0  0  0  0  0  0  0  0
   17.2541   11.6067   -0.0994 C   0  0  2  0  0  0  0  0  0  0  0  0
   18.5569   11.3802    0.5693 N   0  0  0  0  0  0  0  0  0  0  0  0
   16.1489   10.9955    0.7771 C   0  0  0  0  0  0  0  0  0  0  0  0
   16.5062   10.4448    1.8676 O   0  0  0  0  0  0  0  0  0  0  0  0
   14.7485   11.0627    0.3504 N   0  0  0  0  0  0  0  0  0  0  0  0
   13.7402   10.4880    1.2168 C   0  0  1  0  0  0  0  0  0  0  0  0
   13.0900   11.4062    2.2126 C   0  0  0  0  0  0  0  0  0  0  0  0
   12.3873   12.6448    1.7584 C   0  0  0  0  0  0  0  0  0  0  0  0
   13.2063   13.7312    1.1080 C   0  0  0  0  0  0  0  0  0  0  0  0
   12.2424   14.9059    0.7354 C   0  0  0  0  0  0  0  0  0  0  0  0
   13.0154   16.0120    0.1237 N   0  0  0  0  0  0  0  0  0  0  0  0
   12.7997    9.4968    0.5434 C   0  0  0  0  0  0  0  0  0  0  0  0
   12.7955    9.3390   -0.7355 O   0  0  0  0  0  0  0  0  0  0  0  0
   11.9408    8.7681    1.4324 N   0  0  0  0  0  0  0  0  0  0  0  0
   10.9349    7.7230    0.9001 C   0  0  1  0  0  0  0  0  0  0  0  0
   11.5325    6.3727    1.1621 C   0  0  0  0  0  0  0  0  0  0  0  0
   10.9033    5.0822    0.7720 C   0  0  0  0  0  0  0  0  0  0  0  0
    9.6532    4.6138    1.4027 C   0  0  0  0  0  0  0  0  0  0  0  0
    8.8939    3.5780    0.6713 N   0  0  0  0  0  0  0  0  0  0  0  0
    9.1489    4.9864    2.4995 O   0  0  0  0  0  0  0  0  0  0  0  0
    9.6186    8.1500    1.3703 C   0  0  0  0  0  0  0  0  0  0  0  0
    9.6730    9.2612    2.1459 O   0  0  0  0  0  0  0  0  0  0  0  0
    8.2817    7.6903    1.2100 N   0  0  0  0  0  0  0  0  0  0  0  0
    7.2130    8.4827    1.8526 C   0  0  2  0  0  0  0  0  0  0  0  0
    7.2453    8.3912    3.3714 C   0  0  0  0  0  0  0  0  0  0  0  0
    7.9440    7.4287    3.8477 O   0  0  0  0  0  0  0  0  0  0  0  0
    6.5462    9.3454    4.1627 N   0  0  0  0  0  0  0  0  0  0  0  0
    6.4691    9.4770    5.6086 C   0  0  1  0  0  0  0  0  0  0  0  0
    7.6717    8.6299    6.1940 C   0  0  0  0  0  0  0  0  0  0  0  0
    6.7156   10.9149    6.0566 C   0  0  0  0  0  0  0  0  0  0  0  0
    6.7284   11.2683    7.2776 O   0  0  0  0  0  0  0  0  0  0  0  0
    6.9493   11.8782    5.0303 N   0  0  0  0  0  0  0  0  0  0  0  0
    7.2556   13.2948    5.1094 C   0  0  1  0  0  0  0  0  0  0  0  0
    7.9520   13.8271    3.8789 C   0  0  0  0  0  0  0  0  0  0  0  0
    7.1644   13.6899    2.5837 C   0  0  0  0  0  0  0  0  0  0  0  0
    7.9014   14.2391    1.3362 C   0  0  0  0  0  0  0  0  0  0  0  0
    7.0203   14.0639    0.1588 N   0  0  0  0  0  0  0  0  0  0  0  0
    7.3419   14.4357   -1.1734 C   0  0  0  0  0  0  0  0  0  0  0  0
    6.5114   14.2672   -2.3304 N   0  0  0  0  0  0  0  0  0  0  0  0
    8.5423   14.9835   -1.3681 N   0  0  0  0  0  0  0  0  0  0  0  0
    6.0910   14.1564    5.6259 C   0  0  0  0  0  0  0  0  0  0  0  0
    5.0406   13.6306    6.1315 O   0  0  0  0  0  0  0  0  0  0  0  0
    6.1981   15.5722    5.5340 N   0  0  0  0  0  0  0  0  0  0  0  0
    5.2720   16.5974    5.9697 C   0  0  1  0  0  0  0  0  0  0  0  0
    5.9475   17.9699    6.1479 C   0  0  0  0  0  0  0  0  0  0  0  0
    7.0465   17.9658    7.1579 C   0  0  0  0  0  0  0  0  0  0  0  0
    7.8018   19.2467    7.3597 C   0  0  0  0  0  0  0  0  0  0  0  0
    8.6657   19.8373    6.3071 C   0  0  0  0  0  0  0  0  0  0  0  0
    8.2102   20.2862    5.0250 N   0  0  0  0  0  0  0  0  0  0  0  0
    7.4568   21.5609    5.0360 C   0  0  0  0  0  0  0  0  0  0  0  0
    6.1471   21.4592    4.3227 C   0  0  0  0  0  0  0  0  0  0  0  0
    5.0055   21.1706    5.0690 C   0  0  0  0  0  0  0  0  0  0  0  0
    3.7434   21.0568    4.4882 C   0  0  0  0  0  0  0  0  0  0  0  0
    3.5618   21.2301    3.1031 C   0  0  0  0  0  0  0  0  0  0  0  0
    4.7036   21.5233    2.3258 C   0  0  0  0  0  0  0  0  0  0  0  0
    5.9919   21.6367    2.9340 C   0  0  0  0  0  0  0  0  0  0  0  0
    4.1141   16.8253    4.9747 C   0  0  0  0  0  0  0  0  0  0  0  0
    3.3938   17.8596    5.1099 O   0  0  0  0  0  0  0  0  0  0  0  0
    3.8227   15.9108    3.9118 N   0  0  0  0  0  0  0  0  0  0  0  0
    2.7257   16.1527    2.9502 C   0  0  1  0  0  0  0  0  0  0  0  0
    3.0417   15.7111    1.5352 C   0  0  0  0  0  0  0  0  0  0  0  0
    1.9175   16.0022    0.7009 O   0  0  0  0  0  0  0  0  0  0  0  0
    1.4673   15.4142    3.4089 C   0  0  0  0  0  0  0  0  0  0  0  0
    0.9114   15.9115    4.4656 O   0  0  0  0  0  0  0  0  0  0  0  0
    0.9586   14.2877    2.7334 O   0  0  0  0  0  0  0  0  0  0  0  0
    5.8509    8.3630    1.2149 C   0  0  1  0  0  0  0  0  0  0  0  0
    5.3431    6.9161    1.1457 C   0  0  0  0  0  0  0  0  0  0  0  0
    4.8606    9.1422    1.8583 O   0  0  0  0  0  0  0  0  0  0  0  0
  2  1  1  6
  2  3  1  0
  2  4  1  0
  4  5  2  0
  4  6  1  0
  6  7  1  0
  7  8  1  6
  8  9  1  0
  9 10  1  0
 10 11  1  0
 11 12  1  0
  7 13  1  0
 13 14  2  0
 13 15  1  0
 15 16  1  0
 16 17  1  1
 17 18  1  0
 18 19  1  0
 19 20  1  0
 19 21  2  0
 16 22  1  0
 22 23  2  0
 22 24  1  0
 25 24  1  6
 25 26  1  0
 26 27  2  0
 26 28  1  0
 28 29  1  0
 29 30  1  1
 29 31  1  0
 31 32  2  0
 31 33  1  0
 33 34  1  0
 34 35  1  6
 35 36  1  0
 36 37  1  0
 37 38  1  0
 38 39  1  0
 39 40  1  0
 39 41  2  0
 34 42  1  0
 42 43  2  0
 42 44  1  0
 44 45  1  0
 45 46  1  6
 46 47  1  0
 47 48  1  0
 48 49  1  0
 49 50  1  0
 50 51  1  0
 51 52  1  0
 52 53  2  0
 53 54  1  0
 54 55  2  0
 55 56  1  0
 56 57  2  0
 45 58  1  0
 58 59  2  0
 58 60  1  0
 60 61  1  0
 61 62  1  6
 62 63  1  0
 61 64  1  0
 64 65  2  0
 64 66  1  0
 25 67  1  0
 67 68  1  1
 67 69  1  0
 57 52  1  0
M  CHG  5   3   1  12   1  41   1  50   1  66  -1
M  END
>  <shape_align_shape_tanimoto>  (3) 
0.34796760438765945

>  <shape_align_color_tanimoto>  (3) 
0.022079674661998897

>  <metric>  (3) 
combo

>  <metric_score>  (3) 
0.185

>  <template_pid>  (3) 
6D08

>  <template_shape_score>  (3) 
0.348

>  <template_color_score>  (3) 
0.022

>  <template_combo_score>  (3) 
0.185

$$$$
