6JAP_shape_pose
     RDKit          3D

 23 24  0  0  0  0  0  0  0  0999 V2000
   38.0835   26.0998   30.8460 O   0  0  0  0  0  0  0  0  0  0  0  0
   36.7445   25.9407   30.4396 C   0  0  0  0  0  0  0  0  0  0  0  0
   36.3936   24.4680   30.3136 C   0  0  1  0  0  0  0  0  0  0  0  0
   35.1026   24.2989   29.9215 O   0  0  0  0  0  0  0  0  0  0  0  0
   35.0135   23.1684   29.1146 C   0  0  1  0  0  0  0  0  0  0  0  0
   34.8532   21.9708   30.0480 C   0  0  0  0  0  0  0  0  0  0  0  0
   35.9453   21.8571   30.9048 O   0  0  0  0  0  0  0  0  0  0  0  0
   33.9040   23.3392   28.3145 O   0  0  0  0  0  0  0  0  0  0  0  0
   33.6521   22.2923   27.4322 C   0  0  1  0  0  0  0  0  0  0  0  0
   32.4539   21.7376   27.8565 O   0  0  0  0  0  0  0  0  0  0  0  0
   31.9505   20.7231   27.0905 C   0  0  2  0  0  0  0  0  0  0  0  0
   32.4280   19.3843   27.6049 C   0  0  0  0  0  0  0  0  0  0  0  0
   33.8061   19.2753   27.5845 O   0  0  0  0  0  0  0  0  0  0  0  0
   32.2472   20.8632   25.6204 C   0  0  1  0  0  0  0  0  0  0  0  0
   31.1315   20.3813   24.9199 O   0  0  0  0  0  0  0  0  0  0  0  0
   32.4485   22.3068   25.2363 C   0  0  2  0  0  0  0  0  0  0  0  0
   32.8135   22.3349   23.8870 O   0  0  0  0  0  0  0  0  0  0  0  0
   33.6126   22.8275   26.0485 C   0  0  1  0  0  0  0  0  0  0  0  0
   33.5130   24.2347   25.9840 O   0  0  0  0  0  0  0  0  0  0  0  0
   36.3107   23.1126   28.3657 C   0  0  1  0  0  0  0  0  0  0  0  0
   36.3242   23.7683   27.1607 O   0  0  0  0  0  0  0  0  0  0  0  0
   37.2517   23.8157   29.2988 C   0  0  2  0  0  0  0  0  0  0  0  0
   38.1682   22.9188   29.8618 O   0  0  0  0  0  0  0  0  0  0  0  0
  1  2  1  0
  3  2  1  6
  3  4  1  0
  4  5  1  0
  5  6  1  1
  6  7  1  0
  5  8  1  0
  9  8  1  1
  9 10  1  0
 10 11  1  0
 11 12  1  1
 12 13  1  0
 11 14  1  0
 14 15  1  6
 14 16  1  0
 16 17  1  6
 16 18  1  0
 18 19  1  1
  5 20  1  0
 20 21  1  6
 20 22  1  0
 22 23  1  1
 22  3  1  0
 18  9  1  0
M  END
>  <shape_align_shape_tanimoto>  (1) 
0.71826822421240311

>  <shape_align_color_tanimoto>  (1) 
0.11418197574329952

>  <metric>  (1) 
shape

>  <metric_score>  (1) 
0.718

>  <template_pid>  (1) 
6JAP

>  <template_shape_score>  (1) 
0.718

>  <template_color_score>  (1) 
0.114

>  <template_combo_score>  (1) 
0.416

$$$$
6JAP_color_pose
     RDKit          3D

 23 24  0  0  0  0  0  0  0  0999 V2000
   35.7250   22.4345   32.7832 O   0  0  0  0  0  0  0  0  0  0  0  0
   35.4405   22.1455   31.4655 C   0  0  0  0  0  0  0  0  0  0  0  0
   36.4665   22.7039   30.4962 C   0  0  1  0  0  0  0  0  0  0  0  0
   36.1965   22.4252   29.1911 O   0  0  0  0  0  0  0  0  0  0  0  0
   35.6038   23.4986   28.5654 C   0  0  1  0  0  0  0  0  0  0  0  0
   36.5278   24.0855   27.5398 C   0  0  0  0  0  0  0  0  0  0  0  0
   36.9176   23.2452   26.5320 O   0  0  0  0  0  0  0  0  0  0  0  0
   34.3264   23.2528   28.1543 O   0  0  0  0  0  0  0  0  0  0  0  0
   34.1302   22.2301   27.2589 C   0  0  1  0  0  0  0  0  0  0  0  0
   33.4339   21.1638   27.7493 O   0  0  0  0  0  0  0  0  0  0  0  0
   32.3477   20.6952   27.1240 C   0  0  2  0  0  0  0  0  0  0  0  0
   32.2849   19.1780   27.3448 C   0  0  0  0  0  0  0  0  0  0  0  0
   32.2056   18.9054   28.7190 O   0  0  0  0  0  0  0  0  0  0  0  0
   32.2432   20.9367   25.6395 C   0  0  1  0  0  0  0  0  0  0  0  0
   31.0325   20.4416   25.1797 O   0  0  0  0  0  0  0  0  0  0  0  0
   32.2840   22.4669   25.5428 C   0  0  2  0  0  0  0  0  0  0  0  0
   32.0841   22.9177   24.2562 O   0  0  0  0  0  0  0  0  0  0  0  0
   33.7013   22.8043   25.9556 C   0  0  1  0  0  0  0  0  0  0  0  0
   33.8399   24.2124   25.9594 O   0  0  0  0  0  0  0  0  0  0  0  0
   35.4747   24.5958   29.6369 C   0  0  1  0  0  0  0  0  0  0  0  0
   34.1947   24.6372   30.1565 O   0  0  0  0  0  0  0  0  0  0  0  0
   36.4821   24.2064   30.6781 C   0  0  2  0  0  0  0  0  0  0  0  0
   37.7165   24.7768   30.3848 O   0  0  0  0  0  0  0  0  0  0  0  0
  1  2  1  0
  3  2  1  1
  3  4  1  0
  4  5  1  0
  5  6  1  6
  6  7  1  0
  5  8  1  0
  9  8  1  1
  9 10  1  0
 10 11  1  0
 11 12  1  6
 12 13  1  0
 11 14  1  0
 14 15  1  1
 14 16  1  0
 16 17  1  6
 16 18  1  0
 18 19  1  1
  5 20  1  0
 20 21  1  1
 20 22  1  0
 22 23  1  6
 22  3  1  0
 18  9  1  0
M  END
>  <shape_align_shape_tanimoto>  (2) 
0.69203463567219237

>  <shape_align_color_tanimoto>  (2) 
0.18580310969113853

>  <metric>  (2) 
color

>  <metric_score>  (2) 
0.186

>  <template_pid>  (2) 
6JAP

>  <template_shape_score>  (2) 
0.692

>  <template_color_score>  (2) 
0.186

>  <template_combo_score>  (2) 
0.439

$$$$
6JAP_combo_pose
     RDKit          3D

 23 24  0  0  0  0  0  0  0  0999 V2000
   35.7250   22.4345   32.7832 O   0  0  0  0  0  0  0  0  0  0  0  0
   35.4405   22.1455   31.4655 C   0  0  0  0  0  0  0  0  0  0  0  0
   36.4665   22.7039   30.4962 C   0  0  1  0  0  0  0  0  0  0  0  0
   36.1965   22.4252   29.1911 O   0  0  0  0  0  0  0  0  0  0  0  0
   35.6038   23.4986   28.5654 C   0  0  1  0  0  0  0  0  0  0  0  0
   36.5278   24.0855   27.5398 C   0  0  0  0  0  0  0  0  0  0  0  0
   36.9176   23.2452   26.5320 O   0  0  0  0  0  0  0  0  0  0  0  0
   34.3264   23.2528   28.1543 O   0  0  0  0  0  0  0  0  0  0  0  0
   34.1302   22.2301   27.2589 C   0  0  1  0  0  0  0  0  0  0  0  0
   33.4339   21.1638   27.7493 O   0  0  0  0  0  0  0  0  0  0  0  0
   32.3477   20.6952   27.1240 C   0  0  2  0  0  0  0  0  0  0  0  0
   32.2849   19.1780   27.3448 C   0  0  0  0  0  0  0  0  0  0  0  0
   32.2056   18.9054   28.7190 O   0  0  0  0  0  0  0  0  0  0  0  0
   32.2432   20.9367   25.6395 C   0  0  1  0  0  0  0  0  0  0  0  0
   31.0325   20.4416   25.1797 O   0  0  0  0  0  0  0  0  0  0  0  0
   32.2840   22.4669   25.5428 C   0  0  2  0  0  0  0  0  0  0  0  0
   32.0841   22.9177   24.2562 O   0  0  0  0  0  0  0  0  0  0  0  0
   33.7013   22.8043   25.9556 C   0  0  1  0  0  0  0  0  0  0  0  0
   33.8399   24.2124   25.9594 O   0  0  0  0  0  0  0  0  0  0  0  0
   35.4747   24.5958   29.6369 C   0  0  1  0  0  0  0  0  0  0  0  0
   34.1947   24.6372   30.1565 O   0  0  0  0  0  0  0  0  0  0  0  0
   36.4821   24.2064   30.6781 C   0  0  2  0  0  0  0  0  0  0  0  0
   37.7165   24.7768   30.3848 O   0  0  0  0  0  0  0  0  0  0  0  0
  1  2  1  0
  3  2  1  1
  3  4  1  0
  4  5  1  0
  5  6  1  6
  6  7  1  0
  5  8  1  0
  9  8  1  1
  9 10  1  0
 10 11  1  0
 11 12  1  6
 12 13  1  0
 11 14  1  0
 14 15  1  1
 14 16  1  0
 16 17  1  6
 16 18  1  0
 18 19  1  1
  5 20  1  0
 20 21  1  1
 20 22  1  0
 22 23  1  6
 22  3  1  0
 18  9  1  0
M  END
>  <shape_align_shape_tanimoto>  (3) 
0.69203463567219237

>  <shape_align_color_tanimoto>  (3) 
0.18580310969113853

>  <metric>  (3) 
combo

>  <metric_score>  (3) 
0.439

>  <template_pid>  (3) 
6JAP

>  <template_shape_score>  (3) 
0.692

>  <template_color_score>  (3) 
0.186

>  <template_combo_score>  (3) 
0.439

$$$$
