6QQW_shape_pose
     RDKit          3D

 22 25  0  0  0  0  0  0  0  0999 V2000
   21.3728   23.1622   20.4699 N   0  0  0  0  0  0  0  0  0  0  0  0
   22.3463   23.9549   21.1399 C   0  0  0  0  0  0  0  0  0  0  0  0
   22.2902   24.3860   22.4514 C   0  0  0  0  0  0  0  0  0  0  0  0
   23.4154   25.1268   22.7288 C   0  0  0  0  0  0  0  0  0  0  0  0
   23.7648   25.7720   23.9907 C   0  0  0  0  0  0  0  0  0  0  0  0
   24.9459   26.4786   24.0813 C   0  0  0  0  0  0  0  0  0  0  0  0
   25.2157   27.0675   25.3125 C   0  0  0  0  0  0  0  0  0  0  0  0
   24.3563   26.9562   26.3875 C   0  0  0  0  0  0  0  0  0  0  0  0
   24.3877   27.4377   27.7003 C   0  0  0  0  0  0  0  0  0  0  0  0
   23.2254   26.9978   28.3347 C   0  0  0  0  0  0  0  0  0  0  0  0
   22.4991   26.2670   27.4401 N   0  0  0  0  0  0  0  0  0  0  0  0
   21.2218   25.6243   27.6865 C   0  0  0  0  0  0  0  0  0  0  0  0
   21.3299   24.2464   28.1811 C   0  0  0  0  0  0  0  0  0  0  0  0
   21.3915   24.0520   29.5510 C   0  0  0  0  0  0  0  0  0  0  0  0
   21.4948   22.7839   30.1122 C   0  0  0  0  0  0  0  0  0  0  0  0
   21.5388   21.6732   29.2970 C   0  0  0  0  0  0  0  0  0  0  0  0
   21.4774   21.8632   27.9218 C   0  0  0  0  0  0  0  0  0  0  0  0
   21.3751   23.1266   27.3803 C   0  0  0  0  0  0  0  0  0  0  0  0
   23.1758   26.2419   26.2744 C   0  0  0  0  0  0  0  0  0  0  0  0
   22.8989   25.6542   25.0580 C   0  0  0  0  0  0  0  0  0  0  0  0
   24.1425   25.1397   21.5892 N   0  0  0  0  0  0  0  0  0  0  0  0
   23.4995   24.4413   20.6517 N   0  0  0  0  0  0  0  0  0  0  0  0
  1  2  1  0
  2  3  2  0
  3  4  1  0
  4  5  1  0
  5  6  2  0
  6  7  1  0
  7  8  2  0
  8  9  1  0
  9 10  2  0
 10 11  1  0
 11 12  1  0
 12 13  1  0
 13 14  2  0
 14 15  1  0
 15 16  2  0
 16 17  1  0
 17 18  2  0
 11 19  1  0
 19 20  2  0
  4 21  2  0
 21 22  1  0
 22  2  1  0
 20  5  1  0
 19  8  1  0
 18 13  1  0
M  END
>  <shape_align_shape_tanimoto>  (1) 
0.67363267226065227

>  <shape_align_color_tanimoto>  (1) 
0.047890921224127733

>  <metric>  (1) 
shape

>  <metric_score>  (1) 
0.674

>  <template_pid>  (1) 
6QQW

>  <template_shape_score>  (1) 
0.674

>  <template_color_score>  (1) 
0.048

>  <template_combo_score>  (1) 
0.361

$$$$
6QQW_color_pose
     RDKit          3D

 22 25  0  0  0  0  0  0  0  0999 V2000
   21.3665   22.3285   30.6568 N   0  0  0  0  0  0  0  0  0  0  0  0
   21.0715   22.5136   29.2599 C   0  0  0  0  0  0  0  0  0  0  0  0
   21.8343   23.1880   28.3190 C   0  0  0  0  0  0  0  0  0  0  0  0
   21.1731   23.1161   27.1099 C   0  0  0  0  0  0  0  0  0  0  0  0
   21.6132   23.6887   25.8422 C   0  0  0  0  0  0  0  0  0  0  0  0
   20.8359   23.5294   24.7166 C   0  0  0  0  0  0  0  0  0  0  0  0
   21.2758   24.0863   23.5107 C   0  0  0  0  0  0  0  0  0  0  0  0
   22.4831   24.7889   23.4617 C   0  0  0  0  0  0  0  0  0  0  0  0
   23.1714   25.4377   22.4535 C   0  0  0  0  0  0  0  0  0  0  0  0
   24.3297   25.9590   23.0097 C   0  0  0  0  0  0  0  0  0  0  0  0
   24.3677   25.6473   24.3265 N   0  0  0  0  0  0  0  0  0  0  0  0
   25.4309   26.0164   25.2691 C   0  0  0  0  0  0  0  0  0  0  0  0
   25.1685   27.3203   25.9210 C   0  0  0  0  0  0  0  0  0  0  0  0
   24.4781   27.4752   27.0921 C   0  0  0  0  0  0  0  0  0  0  0  0
   24.2686   28.7343   27.6488 C   0  0  0  0  0  0  0  0  0  0  0  0
   24.7661   29.8502   27.0087 C   0  0  0  0  0  0  0  0  0  0  0  0
   25.4713   29.7190   25.8171 C   0  0  0  0  0  0  0  0  0  0  0  0
   25.6555   28.4484   25.3004 C   0  0  0  0  0  0  0  0  0  0  0  0
   23.2593   24.9412   24.6127 C   0  0  0  0  0  0  0  0  0  0  0  0
   22.8035   24.3827   25.7888 C   0  0  0  0  0  0  0  0  0  0  0  0
   20.0472   22.4163   27.3317 N   0  0  0  0  0  0  0  0  0  0  0  0
   19.9759   22.0503   28.6162 N   0  0  0  0  0  0  0  0  0  0  0  0
  1  2  1  0
  2  3  2  0
  3  4  1  0
  4  5  1  0
  5  6  2  0
  6  7  1  0
  7  8  2  0
  8  9  1  0
  9 10  2  0
 10 11  1  0
 11 12  1  0
 12 13  1  0
 13 14  2  0
 14 15  1  0
 15 16  2  0
 16 17  1  0
 17 18  2  0
 11 19  1  0
 19 20  2  0
  4 21  2  0
 21 22  1  0
 22  2  1  0
 20  5  1  0
 19  8  1  0
 18 13  1  0
M  END
>  <shape_align_shape_tanimoto>  (2) 
0.53509133784418117

>  <shape_align_color_tanimoto>  (2) 
0.087315710176060102

>  <metric>  (2) 
color

>  <metric_score>  (2) 
0.087

>  <template_pid>  (2) 
6QQW

>  <template_shape_score>  (2) 
0.535

>  <template_color_score>  (2) 
0.087

>  <template_combo_score>  (2) 
0.311

$$$$
6QQW_combo_pose
     RDKit          3D

 22 25  0  0  0  0  0  0  0  0999 V2000
   21.3728   23.1622   20.4699 N   0  0  0  0  0  0  0  0  0  0  0  0
   22.3463   23.9549   21.1399 C   0  0  0  0  0  0  0  0  0  0  0  0
   22.2902   24.3860   22.4514 C   0  0  0  0  0  0  0  0  0  0  0  0
   23.4154   25.1268   22.7288 C   0  0  0  0  0  0  0  0  0  0  0  0
   23.7648   25.7720   23.9907 C   0  0  0  0  0  0  0  0  0  0  0  0
   24.9459   26.4786   24.0813 C   0  0  0  0  0  0  0  0  0  0  0  0
   25.2157   27.0675   25.3125 C   0  0  0  0  0  0  0  0  0  0  0  0
   24.3563   26.9562   26.3875 C   0  0  0  0  0  0  0  0  0  0  0  0
   24.3877   27.4377   27.7003 C   0  0  0  0  0  0  0  0  0  0  0  0
   23.2254   26.9978   28.3347 C   0  0  0  0  0  0  0  0  0  0  0  0
   22.4991   26.2670   27.4401 N   0  0  0  0  0  0  0  0  0  0  0  0
   21.2218   25.6243   27.6865 C   0  0  0  0  0  0  0  0  0  0  0  0
   21.3299   24.2464   28.1811 C   0  0  0  0  0  0  0  0  0  0  0  0
   21.3915   24.0520   29.5510 C   0  0  0  0  0  0  0  0  0  0  0  0
   21.4948   22.7839   30.1122 C   0  0  0  0  0  0  0  0  0  0  0  0
   21.5388   21.6732   29.2970 C   0  0  0  0  0  0  0  0  0  0  0  0
   21.4774   21.8632   27.9218 C   0  0  0  0  0  0  0  0  0  0  0  0
   21.3751   23.1266   27.3803 C   0  0  0  0  0  0  0  0  0  0  0  0
   23.1758   26.2419   26.2744 C   0  0  0  0  0  0  0  0  0  0  0  0
   22.8989   25.6542   25.0580 C   0  0  0  0  0  0  0  0  0  0  0  0
   24.1425   25.1397   21.5892 N   0  0  0  0  0  0  0  0  0  0  0  0
   23.4995   24.4413   20.6517 N   0  0  0  0  0  0  0  0  0  0  0  0
  1  2  1  0
  2  3  2  0
  3  4  1  0
  4  5  1  0
  5  6  2  0
  6  7  1  0
  7  8  2  0
  8  9  1  0
  9 10  2  0
 10 11  1  0
 11 12  1  0
 12 13  1  0
 13 14  2  0
 14 15  1  0
 15 16  2  0
 16 17  1  0
 17 18  2  0
 11 19  1  0
 19 20  2  0
  4 21  2  0
 21 22  1  0
 22  2  1  0
 20  5  1  0
 19  8  1  0
 18 13  1  0
M  END
>  <shape_align_shape_tanimoto>  (3) 
0.67363267226065227

>  <shape_align_color_tanimoto>  (3) 
0.047890921224127733

>  <metric>  (3) 
combo

>  <metric_score>  (3) 
0.361

>  <template_pid>  (3) 
6QQW

>  <template_shape_score>  (3) 
0.674

>  <template_color_score>  (3) 
0.048

>  <template_combo_score>  (3) 
0.361

$$$$
