3MTA_shape_pose
     RDKit          3D

 24 25  0  0  0  0  0  0  0  0999 V2000
   34.2574   24.5379   25.3427 O   0  0  0  0  0  0  0  0  0  0  0  0
   33.2365   23.6234   25.4858 C   0  0  0  0  0  0  0  0  0  0  0  0
   33.6510   22.5001   26.4454 C   0  0  1  0  0  0  0  0  0  0  0  0
   33.9539   22.9821   27.6799 O   0  0  0  0  0  0  0  0  0  0  0  0
   33.5389   22.2282   28.7589 C   0  0  1  0  0  0  0  0  0  0  0  0
   32.1531   22.3253   29.0852 N   0  0  0  0  0  0  0  0  0  0  0  0
   31.5794   23.5662   29.4821 C   0  0  0  0  0  0  0  0  0  0  0  0
   29.7971   23.7777   29.4747 S   0  0  0  0  0  0  0  0  0  0  0  0
   32.2790   24.5769   29.8573 N   0  0  0  0  0  0  0  0  0  0  0  0
   33.6589   24.4433   29.8735 N   0  0  0  0  0  0  0  0  0  0  0  0
   34.3524   24.8160   30.9096 C   0  0  0  0  0  0  0  0  0  0  0  0
   35.7851   24.7108   31.0044 C   0  0  0  0  0  0  0  0  0  0  0  0
   36.5639   24.2064   30.0076 C   0  0  0  0  0  0  0  0  0  0  0  0
   37.9407   24.1329   30.1644 C   0  0  0  0  0  0  0  0  0  0  0  0
   38.5676   24.5600   31.3158 C   0  0  0  0  0  0  0  0  0  0  0  0
   37.7850   25.0739   32.3337 C   0  0  0  0  0  0  0  0  0  0  0  0
   38.5756   25.6918   33.9717 Br  0  0  0  0  0  0  0  0  0  0  0  0
   36.4128   25.1385   32.1573 C   0  0  0  0  0  0  0  0  0  0  0  0
   33.7478   20.7489   28.3546 C   0  0  2  0  0  0  0  0  0  0  0  0
   35.0905   20.5100   28.1992 O   0  0  0  0  0  0  0  0  0  0  0  0
   32.8791   20.3475   27.2143 C   0  0  1  0  0  0  0  0  0  0  0  0
   31.7649   19.6035   27.6125 O   0  0  0  0  0  0  0  0  0  0  0  0
   32.4986   21.5266   26.3914 C   0  0  2  0  0  0  0  0  0  0  0  0
   32.3962   21.1133   25.0513 O   0  0  0  0  0  0  0  0  0  0  0  0
  1  2  1  0
  3  2  1  6
  3  4  1  0
  4  5  1  0
  5  6  1  6
  6  7  1  0
  7  8  1  0
  7  9  2  0
  9 10  1  0
 10 11  2  0
 11 12  1  0
 12 13  2  0
 13 14  1  0
 14 15  2  0
 15 16  1  0
 16 17  1  0
 16 18  2  0
  5 19  1  0
 19 20  1  6
 19 21  1  0
 21 22  1  1
 21 23  1  0
 23 24  1  6
 23  3  1  0
 18 12  1  0
M  END
>  <shape_align_shape_tanimoto>  (1) 
0.66251068697210802

>  <shape_align_color_tanimoto>  (1) 
0.075583340028992446

>  <metric>  (1) 
shape

>  <metric_score>  (1) 
0.663

>  <template_pid>  (1) 
3MTA

>  <template_shape_score>  (1) 
0.663

>  <template_color_score>  (1) 
0.076

>  <template_combo_score>  (1) 
0.369

$$$$
3MTA_color_pose
     RDKit          3D

 24 25  0  0  0  0  0  0  0  0999 V2000
   31.4785   25.7276   26.9851 O   0  0  0  0  0  0  0  0  0  0  0  0
   32.5145   25.8521   26.0579 C   0  0  0  0  0  0  0  0  0  0  0  0
   33.5819   24.7744   26.3433 C   0  0  1  0  0  0  0  0  0  0  0  0
   32.9612   23.5867   26.2221 O   0  0  0  0  0  0  0  0  0  0  0  0
   33.6177   22.5110   25.7333 C   0  0  1  0  0  0  0  0  0  0  0  0
   32.7040   21.4539   25.3855 N   0  0  0  0  0  0  0  0  0  0  0  0
   31.9889   20.8274   26.4414 C   0  0  0  0  0  0  0  0  0  0  0  0
   30.5584   19.8075   26.0084 S   0  0  0  0  0  0  0  0  0  0  0  0
   32.2679   20.9216   27.6737 N   0  0  0  0  0  0  0  0  0  0  0  0
   33.3569   21.6910   28.0801 N   0  0  0  0  0  0  0  0  0  0  0  0
   33.3331   22.3610   29.1926 C   0  0  0  0  0  0  0  0  0  0  0  0
   34.4228   23.1784   29.6817 C   0  0  0  0  0  0  0  0  0  0  0  0
   34.2716   23.8647   30.8912 C   0  0  0  0  0  0  0  0  0  0  0  0
   35.2696   24.6497   31.4198 C   0  0  0  0  0  0  0  0  0  0  0  0
   36.4760   24.7983   30.7769 C   0  0  0  0  0  0  0  0  0  0  0  0
   36.6372   24.1246   29.5803 C   0  0  0  0  0  0  0  0  0  0  0  0
   38.3218   24.3365   28.7001 Br  0  0  0  0  0  0  0  0  0  0  0  0
   35.6300   23.3352   29.0512 C   0  0  0  0  0  0  0  0  0  0  0  0
   34.1465   22.9910   24.3588 C   0  0  2  0  0  0  0  0  0  0  0  0
   34.7448   21.8690   23.7875 O   0  0  0  0  0  0  0  0  0  0  0  0
   35.2191   24.0302   24.5631 C   0  0  1  0  0  0  0  0  0  0  0  0
   35.5557   24.6313   23.3574 O   0  0  0  0  0  0  0  0  0  0  0  0
   34.8287   25.0295   25.5906 C   0  0  2  0  0  0  0  0  0  0  0  0
   35.8864   25.3062   26.4722 O   0  0  0  0  0  0  0  0  0  0  0  0
  1  2  1  0
  3  2  1  6
  3  4  1  0
  4  5  1  0
  5  6  1  6
  6  7  1  0
  7  8  1  0
  7  9  2  0
  9 10  1  0
 10 11  2  0
 11 12  1  0
 12 13  2  0
 13 14  1  0
 14 15  2  0
 15 16  1  0
 16 17  1  0
 16 18  2  0
  5 19  1  0
 19 20  1  1
 19 21  1  0
 21 22  1  6
 21 23  1  0
 23 24  1  1
 23  3  1  0
 18 12  1  0
M  END
>  <shape_align_shape_tanimoto>  (2) 
0.44106089948027716

>  <shape_align_color_tanimoto>  (2) 
0.13494671597938263

>  <metric>  (2) 
color

>  <metric_score>  (2) 
0.135

>  <template_pid>  (2) 
3MTA

>  <template_shape_score>  (2) 
0.441

>  <template_color_score>  (2) 
0.135

>  <template_combo_score>  (2) 
0.288

$$$$
3MTA_combo_pose
     RDKit          3D

 24 25  0  0  0  0  0  0  0  0999 V2000
   34.2574   24.5379   25.3427 O   0  0  0  0  0  0  0  0  0  0  0  0
   33.2365   23.6234   25.4858 C   0  0  0  0  0  0  0  0  0  0  0  0
   33.6510   22.5001   26.4454 C   0  0  1  0  0  0  0  0  0  0  0  0
   33.9539   22.9821   27.6799 O   0  0  0  0  0  0  0  0  0  0  0  0
   33.5389   22.2282   28.7589 C   0  0  1  0  0  0  0  0  0  0  0  0
   32.1531   22.3253   29.0852 N   0  0  0  0  0  0  0  0  0  0  0  0
   31.5794   23.5662   29.4821 C   0  0  0  0  0  0  0  0  0  0  0  0
   29.7971   23.7777   29.4747 S   0  0  0  0  0  0  0  0  0  0  0  0
   32.2790   24.5769   29.8573 N   0  0  0  0  0  0  0  0  0  0  0  0
   33.6589   24.4433   29.8735 N   0  0  0  0  0  0  0  0  0  0  0  0
   34.3524   24.8160   30.9096 C   0  0  0  0  0  0  0  0  0  0  0  0
   35.7851   24.7108   31.0044 C   0  0  0  0  0  0  0  0  0  0  0  0
   36.5639   24.2064   30.0076 C   0  0  0  0  0  0  0  0  0  0  0  0
   37.9407   24.1329   30.1644 C   0  0  0  0  0  0  0  0  0  0  0  0
   38.5676   24.5600   31.3158 C   0  0  0  0  0  0  0  0  0  0  0  0
   37.7850   25.0739   32.3337 C   0  0  0  0  0  0  0  0  0  0  0  0
   38.5756   25.6918   33.9717 Br  0  0  0  0  0  0  0  0  0  0  0  0
   36.4128   25.1385   32.1573 C   0  0  0  0  0  0  0  0  0  0  0  0
   33.7478   20.7489   28.3546 C   0  0  2  0  0  0  0  0  0  0  0  0
   35.0905   20.5100   28.1992 O   0  0  0  0  0  0  0  0  0  0  0  0
   32.8791   20.3475   27.2143 C   0  0  1  0  0  0  0  0  0  0  0  0
   31.7649   19.6035   27.6125 O   0  0  0  0  0  0  0  0  0  0  0  0
   32.4986   21.5266   26.3914 C   0  0  2  0  0  0  0  0  0  0  0  0
   32.3962   21.1133   25.0513 O   0  0  0  0  0  0  0  0  0  0  0  0
  1  2  1  0
  3  2  1  6
  3  4  1  0
  4  5  1  0
  5  6  1  6
  6  7  1  0
  7  8  1  0
  7  9  2  0
  9 10  1  0
 10 11  2  0
 11 12  1  0
 12 13  2  0
 13 14  1  0
 14 15  2  0
 15 16  1  0
 16 17  1  0
 16 18  2  0
  5 19  1  0
 19 20  1  6
 19 21  1  0
 21 22  1  1
 21 23  1  0
 23 24  1  6
 23  3  1  0
 18 12  1  0
M  END
>  <shape_align_shape_tanimoto>  (3) 
0.66251068697210802

>  <shape_align_color_tanimoto>  (3) 
0.075583340028992446

>  <metric>  (3) 
combo

>  <metric_score>  (3) 
0.369

>  <template_pid>  (3) 
3MTA

>  <template_shape_score>  (3) 
0.663

>  <template_color_score>  (3) 
0.076

>  <template_combo_score>  (3) 
0.369

$$$$
