3NTI_shape_pose
     RDKit          3D

 53 52  0  0  0  0  0  0  0  0999 V2000
  -21.4990    8.2957   -3.3290 C   0  0  0  0  0  0  0  0  0  0  0  0
  -22.9275    8.0783   -2.9436 N   0  0  0  0  0  0  0  0  0  0  0  0
  -23.6850    7.0101   -3.5897 C   0  0  0  0  0  0  0  0  0  0  0  0
  -24.9428    6.6650   -2.9793 N   0  0  0  0  0  0  0  0  0  0  0  0
  -25.3612    5.2732   -2.7465 C   0  0  0  0  0  0  0  0  0  0  0  0
  -23.2417    6.4016   -4.6376 N   0  0  0  0  0  0  0  0  0  0  0  0
  -23.8610    5.3294   -5.4019 C   0  0  0  0  0  0  0  0  0  0  0  0
  -23.4614    5.3470   -6.8798 C   0  0  0  0  0  0  0  0  0  0  0  0
  -23.7448    6.5746   -7.6697 C   0  0  0  0  0  0  0  0  0  0  0  0
  -25.1553    7.0895   -7.8662 C   0  0  2  0  0  0  0  0  0  0  0  0
  -25.9059    7.4865   -6.6866 N   0  0  0  0  0  0  0  0  0  0  0  0
  -26.1739    8.9122   -6.5183 C   0  0  0  0  0  0  0  0  0  0  0  0
  -25.7687    9.7675   -7.3894 O   0  0  0  0  0  0  0  0  0  0  0  0
  -26.9335    9.3691   -5.3027 C   0  0  0  0  0  0  0  0  0  0  0  0
  -27.1037   10.8184   -5.3499 N   0  0  0  0  0  0  0  0  0  0  0  0
  -26.0357   11.7838   -5.4003 C   0  0  0  0  0  0  0  0  0  0  0  0
  -24.8193   11.3149   -5.4221 O   0  0  0  0  0  0  0  0  0  0  0  0
  -26.3075   13.2727   -5.4286 C   0  0  2  0  0  0  0  0  0  0  0  0
  -25.3968   14.1210   -4.5950 C   0  0  0  0  0  0  0  0  0  0  0  0
  -23.9082   14.0680   -4.9536 C   0  0  0  0  0  0  0  0  0  0  0  0
  -23.6393   14.5376   -6.3880 C   0  0  0  0  0  0  0  0  0  0  0  0
  -22.2024   14.4809   -6.7543 N   0  0  0  0  0  0  0  0  0  0  0  0
  -21.7738   14.9041   -8.0924 C   0  0  0  0  0  0  0  0  0  0  0  0
  -20.3615   14.8182   -8.3686 N   0  0  0  0  0  0  0  0  0  0  0  0
  -22.6633   15.3253   -8.9431 N   0  0  0  0  0  0  0  0  0  0  0  0
  -27.7137   13.6066   -5.1685 N   0  0  0  0  0  0  0  0  0  0  0  0
  -28.3424   13.1899   -3.9325 C   0  0  0  0  0  0  0  0  0  0  0  0
  -27.7580   12.5500   -3.0103 O   0  0  0  0  0  0  0  0  0  0  0  0
  -29.8186   13.5218   -3.6876 C   0  0  0  0  0  0  0  0  0  0  0  0
  -30.1177   12.9383   -2.3741 N   0  0  0  0  0  0  0  0  0  0  0  0
  -29.4630   13.3548   -1.1423 C   0  0  0  0  0  0  0  0  0  0  0  0
  -28.5979   14.2673   -1.1493 O   0  0  0  0  0  0  0  0  0  0  0  0
  -29.9095   12.6091    0.1078 C   0  0  1  0  0  0  0  0  0  0  0  0
  -30.5507   11.3423   -0.2370 N   0  0  0  0  0  0  0  0  0  0  0  0
  -28.9083   12.5819    1.2256 C   0  0  0  0  0  0  0  0  0  0  0  0
  -27.5467   11.9452    0.8968 C   0  0  0  0  0  0  0  0  0  0  0  0
  -26.7145   12.0290    2.1851 C   0  0  0  0  0  0  0  0  0  0  0  0
  -25.3688   11.5051    2.1042 N   0  0  0  0  0  0  0  0  0  0  0  0
  -25.0206   10.1136    1.9023 C   0  0  0  0  0  0  0  0  0  0  0  0
  -23.5784    9.8406    1.8636 N   0  0  0  0  0  0  0  0  0  0  0  0
  -25.8910    9.1542    1.7706 N   0  0  0  0  0  0  0  0  0  0  0  0
  -25.9269    6.0480   -8.6910 C   0  0  0  0  0  0  0  0  0  0  0  0
  -25.2893    5.6226   -9.7360 O   0  0  0  0  0  0  0  0  0  0  0  0
  -27.2335    5.5916   -8.3324 N   0  0  0  0  0  0  0  0  0  0  0  0
  -27.9296    4.5774   -9.1733 C   0  0  0  0  0  0  0  0  0  0  0  0
  -28.0574    5.1980  -10.5434 C   0  0  0  0  0  0  0  0  0  0  0  0
  -27.6181    6.3794  -10.8170 O   0  0  0  0  0  0  0  0  0  0  0  0
  -28.6913    4.4845  -11.6435 N   0  0  0  0  0  0  0  0  0  0  0  0
  -28.7949    5.1159  -12.9700 C   0  0  1  0  0  0  0  0  0  0  0  0
  -28.0040    4.2942  -14.0293 C   0  0  0  0  0  0  0  0  0  0  0  0
  -30.2090    5.3034  -13.4336 C   0  0  0  0  0  0  0  0  0  0  0  0
  -30.3896    6.0853  -14.4413 O   0  0  0  0  0  0  0  0  0  0  0  0
  -31.3279    4.6946  -12.8525 O   0  0  0  0  0  0  0  0  0  0  0  0
  1  2  1  0
  2  3  1  0
  3  4  1  0
  4  5  1  0
  3  6  2  3
  6  7  1  0
  7  8  1  0
  8  9  1  0
 10  9  1  1
 10 11  1  0
 11 12  1  0
 12 13  2  0
 12 14  1  0
 14 15  1  0
 15 16  1  0
 16 17  2  0
 16 18  1  0
 18 19  1  1
 19 20  1  0
 20 21  1  0
 21 22  1  0
 22 23  1  0
 23 24  1  0
 23 25  2  0
 18 26  1  0
 26 27  1  0
 27 28  2  0
 27 29  1  0
 29 30  1  0
 30 31  1  0
 31 32  2  0
 31 33  1  0
 33 34  1  6
 33 35  1  0
 35 36  1  0
 36 37  1  0
 37 38  1  0
 38 39  1  0
 39 40  1  0
 39 41  2  0
 10 42  1  0
 42 43  2  0
 42 44  1  0
 44 45  1  0
 45 46  1  0
 46 47  2  0
 46 48  1  0
 48 49  1  0
 49 50  1  6
 49 51  1  0
 51 52  2  0
 51 53  1  0
M  CHG  5   6   1  25   1  34   1  41   1  53  -1
M  END
>  <shape_align_shape_tanimoto>  (1) 
0.47189601297394496

>  <shape_align_color_tanimoto>  (1) 
0.027019613179121254

>  <metric>  (1) 
shape

>  <metric_score>  (1) 
0.472

>  <template_pid>  (1) 
3NTI

>  <template_shape_score>  (1) 
0.472

>  <template_color_score>  (1) 
0.027

>  <template_combo_score>  (1) 
0.249

$$$$
3NTI_color_pose
     RDKit          3D

 53 52  0  0  0  0  0  0  0  0999 V2000
  -18.4478   14.5764   -6.0182 C   0  0  0  0  0  0  0  0  0  0  0  0
  -19.2374   13.6582   -6.8145 N   0  0  0  0  0  0  0  0  0  0  0  0
  -20.5460   14.0448   -7.3067 C   0  0  0  0  0  0  0  0  0  0  0  0
  -21.0891   13.2559   -8.3471 N   0  0  0  0  0  0  0  0  0  0  0  0
  -21.7634   13.7882   -9.5020 C   0  0  0  0  0  0  0  0  0  0  0  0
  -21.1686   15.0461   -6.8328 N   0  0  0  0  0  0  0  0  0  0  0  0
  -22.4458   15.5672   -7.1887 C   0  0  0  0  0  0  0  0  0  0  0  0
  -23.2264   16.2127   -6.1100 C   0  0  0  0  0  0  0  0  0  0  0  0
  -23.6366   15.4908   -4.9086 C   0  0  0  0  0  0  0  0  0  0  0  0
  -24.5003   14.3195   -4.9532 C   0  0  2  0  0  0  0  0  0  0  0  0
  -23.9964   13.1995   -5.6215 N   0  0  0  0  0  0  0  0  0  0  0  0
  -24.5972   11.8769   -5.6369 C   0  0  0  0  0  0  0  0  0  0  0  0
  -25.6699   11.6412   -5.0494 O   0  0  0  0  0  0  0  0  0  0  0  0
  -23.8218   10.8660   -6.4044 C   0  0  0  0  0  0  0  0  0  0  0  0
  -24.4048    9.5891   -6.5108 N   0  0  0  0  0  0  0  0  0  0  0  0
  -24.8424    8.7387   -5.4656 C   0  0  0  0  0  0  0  0  0  0  0  0
  -24.7319    9.1699   -4.2914 O   0  0  0  0  0  0  0  0  0  0  0  0
  -25.3990    7.4142   -5.8192 C   0  0  2  0  0  0  0  0  0  0  0  0
  -24.9679    6.3849   -4.7853 C   0  0  0  0  0  0  0  0  0  0  0  0
  -23.5256    6.1949   -4.6379 C   0  0  0  0  0  0  0  0  0  0  0  0
  -23.1000    5.1756   -3.6388 C   0  0  0  0  0  0  0  0  0  0  0  0
  -23.4778    5.3503   -2.2727 N   0  0  0  0  0  0  0  0  0  0  0  0
  -24.6946    5.0584   -1.6615 C   0  0  0  0  0  0  0  0  0  0  0  0
  -24.8201    5.3591   -0.2563 N   0  0  0  0  0  0  0  0  0  0  0  0
  -25.7304    4.5524   -2.2252 N   0  0  0  0  0  0  0  0  0  0  0  0
  -25.0341    7.0828   -7.1577 N   0  0  0  0  0  0  0  0  0  0  0  0
  -25.8900    6.6503   -8.2043 C   0  0  0  0  0  0  0  0  0  0  0  0
  -27.1075    6.5100   -8.0513 O   0  0  0  0  0  0  0  0  0  0  0  0
  -25.1836    6.3756   -9.5137 C   0  0  0  0  0  0  0  0  0  0  0  0
  -26.1602    5.9249  -10.4645 N   0  0  0  0  0  0  0  0  0  0  0  0
  -26.9809    4.7788  -10.2943 C   0  0  0  0  0  0  0  0  0  0  0  0
  -26.8431    4.1249   -9.2393 O   0  0  0  0  0  0  0  0  0  0  0  0
  -27.9299    4.4293  -11.3657 C   0  0  1  0  0  0  0  0  0  0  0  0
  -28.4495    3.0757  -11.0874 N   0  0  0  0  0  0  0  0  0  0  0  0
  -29.1417    5.3182  -11.3637 C   0  0  0  0  0  0  0  0  0  0  0  0
  -28.8726    6.7733  -11.5686 C   0  0  0  0  0  0  0  0  0  0  0  0
  -30.1857    7.5818  -11.5836 C   0  0  0  0  0  0  0  0  0  0  0  0
  -29.8120    8.9830  -11.8194 N   0  0  0  0  0  0  0  0  0  0  0  0
  -30.8399    9.9686  -11.8761 C   0  0  0  0  0  0  0  0  0  0  0  0
  -30.5126   11.3293  -12.0980 N   0  0  0  0  0  0  0  0  0  0  0  0
  -32.0651    9.5637  -11.7144 N   0  0  0  0  0  0  0  0  0  0  0  0
  -25.9184   14.6738   -5.3871 C   0  0  0  0  0  0  0  0  0  0  0  0
  -26.5514   13.8715   -6.1630 O   0  0  0  0  0  0  0  0  0  0  0  0
  -26.5184   15.8908   -4.9278 N   0  0  0  0  0  0  0  0  0  0  0  0
  -27.8776   16.2527   -5.3104 C   0  0  0  0  0  0  0  0  0  0  0  0
  -28.8948   15.3016   -4.7857 C   0  0  0  0  0  0  0  0  0  0  0  0
  -30.1422   15.4440   -5.0655 O   0  0  0  0  0  0  0  0  0  0  0  0
  -28.5554   14.1903   -3.9467 N   0  0  0  0  0  0  0  0  0  0  0  0
  -29.5635   13.2927   -3.4550 C   0  0  1  0  0  0  0  0  0  0  0  0
  -29.3491   11.8494   -3.7296 C   0  0  0  0  0  0  0  0  0  0  0  0
  -29.7212   13.4610   -1.9607 C   0  0  0  0  0  0  0  0  0  0  0  0
  -30.2820   14.5363   -1.6171 O   0  0  0  0  0  0  0  0  0  0  0  0
  -29.2825   12.5082   -1.0601 O   0  0  0  0  0  0  0  0  0  0  0  0
  1  2  1  0
  2  3  1  0
  3  4  1  0
  4  5  1  0
  3  6  2  3
  6  7  1  0
  7  8  1  0
  8  9  1  0
 10  9  1  6
 10 11  1  0
 11 12  1  0
 12 13  2  0
 12 14  1  0
 14 15  1  0
 15 16  1  0
 16 17  2  0
 16 18  1  0
 18 19  1  1
 19 20  1  0
 20 21  1  0
 21 22  1  0
 22 23  1  0
 23 24  1  0
 23 25  2  0
 18 26  1  0
 26 27  1  0
 27 28  2  0
 27 29  1  0
 29 30  1  0
 30 31  1  0
 31 32  2  0
 31 33  1  0
 33 34  1  1
 33 35  1  0
 35 36  1  0
 36 37  1  0
 37 38  1  0
 38 39  1  0
 39 40  1  0
 39 41  2  0
 10 42  1  0
 42 43  2  0
 42 44  1  0
 44 45  1  0
 45 46  1  0
 46 47  2  0
 46 48  1  0
 48 49  1  0
 49 50  1  1
 49 51  1  0
 51 52  2  0
 51 53  1  0
M  CHG  5   6   1  25   1  34   1  41   1  53  -1
M  END
>  <shape_align_shape_tanimoto>  (2) 
0.42118102483592612

>  <shape_align_color_tanimoto>  (2) 
0.04620731691412254

>  <metric>  (2) 
color

>  <metric_score>  (2) 
0.046

>  <template_pid>  (2) 
3NTI

>  <template_shape_score>  (2) 
0.421

>  <template_color_score>  (2) 
0.046

>  <template_combo_score>  (2) 
0.234

$$$$
3NTI_combo_pose
     RDKit          3D

 53 52  0  0  0  0  0  0  0  0999 V2000
  -21.4990    8.2957   -3.3290 C   0  0  0  0  0  0  0  0  0  0  0  0
  -22.9275    8.0783   -2.9436 N   0  0  0  0  0  0  0  0  0  0  0  0
  -23.6850    7.0101   -3.5897 C   0  0  0  0  0  0  0  0  0  0  0  0
  -24.9428    6.6650   -2.9793 N   0  0  0  0  0  0  0  0  0  0  0  0
  -25.3612    5.2732   -2.7465 C   0  0  0  0  0  0  0  0  0  0  0  0
  -23.2417    6.4016   -4.6376 N   0  0  0  0  0  0  0  0  0  0  0  0
  -23.8610    5.3294   -5.4019 C   0  0  0  0  0  0  0  0  0  0  0  0
  -23.4614    5.3470   -6.8798 C   0  0  0  0  0  0  0  0  0  0  0  0
  -23.7448    6.5746   -7.6697 C   0  0  0  0  0  0  0  0  0  0  0  0
  -25.1553    7.0895   -7.8662 C   0  0  2  0  0  0  0  0  0  0  0  0
  -25.9059    7.4865   -6.6866 N   0  0  0  0  0  0  0  0  0  0  0  0
  -26.1739    8.9122   -6.5183 C   0  0  0  0  0  0  0  0  0  0  0  0
  -25.7687    9.7675   -7.3894 O   0  0  0  0  0  0  0  0  0  0  0  0
  -26.9335    9.3691   -5.3027 C   0  0  0  0  0  0  0  0  0  0  0  0
  -27.1037   10.8184   -5.3499 N   0  0  0  0  0  0  0  0  0  0  0  0
  -26.0357   11.7838   -5.4003 C   0  0  0  0  0  0  0  0  0  0  0  0
  -24.8193   11.3149   -5.4221 O   0  0  0  0  0  0  0  0  0  0  0  0
  -26.3075   13.2727   -5.4286 C   0  0  2  0  0  0  0  0  0  0  0  0
  -25.3968   14.1210   -4.5950 C   0  0  0  0  0  0  0  0  0  0  0  0
  -23.9082   14.0680   -4.9536 C   0  0  0  0  0  0  0  0  0  0  0  0
  -23.6393   14.5376   -6.3880 C   0  0  0  0  0  0  0  0  0  0  0  0
  -22.2024   14.4809   -6.7543 N   0  0  0  0  0  0  0  0  0  0  0  0
  -21.7738   14.9041   -8.0924 C   0  0  0  0  0  0  0  0  0  0  0  0
  -20.3615   14.8182   -8.3686 N   0  0  0  0  0  0  0  0  0  0  0  0
  -22.6633   15.3253   -8.9431 N   0  0  0  0  0  0  0  0  0  0  0  0
  -27.7137   13.6066   -5.1685 N   0  0  0  0  0  0  0  0  0  0  0  0
  -28.3424   13.1899   -3.9325 C   0  0  0  0  0  0  0  0  0  0  0  0
  -27.7580   12.5500   -3.0103 O   0  0  0  0  0  0  0  0  0  0  0  0
  -29.8186   13.5218   -3.6876 C   0  0  0  0  0  0  0  0  0  0  0  0
  -30.1177   12.9383   -2.3741 N   0  0  0  0  0  0  0  0  0  0  0  0
  -29.4630   13.3548   -1.1423 C   0  0  0  0  0  0  0  0  0  0  0  0
  -28.5979   14.2673   -1.1493 O   0  0  0  0  0  0  0  0  0  0  0  0
  -29.9095   12.6091    0.1078 C   0  0  1  0  0  0  0  0  0  0  0  0
  -30.5507   11.3423   -0.2370 N   0  0  0  0  0  0  0  0  0  0  0  0
  -28.9083   12.5819    1.2256 C   0  0  0  0  0  0  0  0  0  0  0  0
  -27.5467   11.9452    0.8968 C   0  0  0  0  0  0  0  0  0  0  0  0
  -26.7145   12.0290    2.1851 C   0  0  0  0  0  0  0  0  0  0  0  0
  -25.3688   11.5051    2.1042 N   0  0  0  0  0  0  0  0  0  0  0  0
  -25.0206   10.1136    1.9023 C   0  0  0  0  0  0  0  0  0  0  0  0
  -23.5784    9.8406    1.8636 N   0  0  0  0  0  0  0  0  0  0  0  0
  -25.8910    9.1542    1.7706 N   0  0  0  0  0  0  0  0  0  0  0  0
  -25.9269    6.0480   -8.6910 C   0  0  0  0  0  0  0  0  0  0  0  0
  -25.2893    5.6226   -9.7360 O   0  0  0  0  0  0  0  0  0  0  0  0
  -27.2335    5.5916   -8.3324 N   0  0  0  0  0  0  0  0  0  0  0  0
  -27.9296    4.5774   -9.1733 C   0  0  0  0  0  0  0  0  0  0  0  0
  -28.0574    5.1980  -10.5434 C   0  0  0  0  0  0  0  0  0  0  0  0
  -27.6181    6.3794  -10.8170 O   0  0  0  0  0  0  0  0  0  0  0  0
  -28.6913    4.4845  -11.6435 N   0  0  0  0  0  0  0  0  0  0  0  0
  -28.7949    5.1159  -12.9700 C   0  0  1  0  0  0  0  0  0  0  0  0
  -28.0040    4.2942  -14.0293 C   0  0  0  0  0  0  0  0  0  0  0  0
  -30.2090    5.3034  -13.4336 C   0  0  0  0  0  0  0  0  0  0  0  0
  -30.3896    6.0853  -14.4413 O   0  0  0  0  0  0  0  0  0  0  0  0
  -31.3279    4.6946  -12.8525 O   0  0  0  0  0  0  0  0  0  0  0  0
  1  2  1  0
  2  3  1  0
  3  4  1  0
  4  5  1  0
  3  6  2  3
  6  7  1  0
  7  8  1  0
  8  9  1  0
 10  9  1  1
 10 11  1  0
 11 12  1  0
 12 13  2  0
 12 14  1  0
 14 15  1  0
 15 16  1  0
 16 17  2  0
 16 18  1  0
 18 19  1  1
 19 20  1  0
 20 21  1  0
 21 22  1  0
 22 23  1  0
 23 24  1  0
 23 25  2  0
 18 26  1  0
 26 27  1  0
 27 28  2  0
 27 29  1  0
 29 30  1  0
 30 31  1  0
 31 32  2  0
 31 33  1  0
 33 34  1  6
 33 35  1  0
 35 36  1  0
 36 37  1  0
 37 38  1  0
 38 39  1  0
 39 40  1  0
 39 41  2  0
 10 42  1  0
 42 43  2  0
 42 44  1  0
 44 45  1  0
 45 46  1  0
 46 47  2  0
 46 48  1  0
 48 49  1  0
 49 50  1  6
 49 51  1  0
 51 52  2  0
 51 53  1  0
M  CHG  5   6   1  25   1  34   1  41   1  53  -1
M  END
>  <shape_align_shape_tanimoto>  (3) 
0.47189601297394496

>  <shape_align_color_tanimoto>  (3) 
0.027019613179121254

>  <metric>  (3) 
combo

>  <metric_score>  (3) 
0.249

>  <template_pid>  (3) 
3NTI

>  <template_shape_score>  (3) 
0.472

>  <template_color_score>  (3) 
0.027

>  <template_combo_score>  (3) 
0.249

$$$$
