6QLS_shape_pose
     RDKit          3D

 33 36  0  0  0  0  0  0  0  0999 V2000
   14.8601  -12.4479    4.4157 O   0  0  0  0  0  0  0  0  0  0  0  0
   15.7040  -13.0531    3.5252 C   0  0  0  0  0  0  0  0  0  0  0  0
   15.0324  -13.8535    2.4391 C   0  0  1  0  0  0  0  0  0  0  0  0
   14.2574  -14.8815    2.9012 O   0  0  0  0  0  0  0  0  0  0  0  0
   12.9024  -14.7493    2.7781 C   0  0  1  0  0  0  0  0  0  0  0  0
   12.2940  -13.5994    4.0192 S   0  0  0  0  0  0  0  0  0  0  0  0
   10.5078  -13.3600    3.9360 C   0  0  2  0  0  0  0  0  0  0  0  0
   10.1764  -12.4556    4.9447 O   0  0  0  0  0  0  0  0  0  0  0  0
    8.8760  -12.0197    4.6983 C   0  0  2  0  0  0  0  0  0  0  0  0
    8.6064  -10.8053    5.5870 C   0  0  0  0  0  0  0  0  0  0  0  0
    9.4964   -9.7832    5.3086 O   0  0  0  0  0  0  0  0  0  0  0  0
    7.9496  -13.1494    5.0927 C   0  0  1  0  0  0  0  0  0  0  0  0
    6.6156  -12.8212    4.8757 O   0  0  0  0  0  0  0  0  0  0  0  0
    8.2878  -14.3687    4.2758 C   0  0  2  0  0  0  0  0  0  0  0  0
    7.6258  -15.4834    4.8365 O   0  0  0  0  0  0  0  0  0  0  0  0
    9.7542  -14.6435    4.2221 C   0  0  1  0  0  0  0  0  0  0  0  0
   10.0063  -15.5810    3.2084 O   0  0  0  0  0  0  0  0  0  0  0  0
   12.3937  -14.4760    1.4041 C   0  0  2  0  0  0  0  0  0  0  0  0
   11.9432  -15.6503    0.7584 O   0  0  0  0  0  0  0  0  0  0  0  0
   13.5427  -13.9654    0.5674 C   0  0  1  0  0  0  0  0  0  0  0  0
   13.1530  -13.4626   -0.7209 N   0  0  0  0  0  0  0  0  0  0  0  0
   12.1233  -12.6276   -0.9962 C   0  0  0  0  0  0  0  0  0  0  0  0
   12.0990  -12.3923   -2.3703 C   0  0  0  0  0  0  0  0  0  0  0  0
   11.1537  -11.5502   -3.1054 C   0  0  0  0  0  0  0  0  0  0  0  0
   10.1284  -10.8617   -2.4683 C   0  0  0  0  0  0  0  0  0  0  0  0
    9.2420  -10.0677   -3.1883 C   0  0  0  0  0  0  0  0  0  0  0  0
    9.4165   -9.9868   -4.5641 C   0  0  0  0  0  0  0  0  0  0  0  0
   10.4387  -10.6712   -5.2123 C   0  0  0  0  0  0  0  0  0  0  0  0
   11.3228  -11.4658   -4.4765 C   0  0  0  0  0  0  0  0  0  0  0  0
   13.1324  -13.1115   -2.8483 N   0  0  0  0  0  0  0  0  0  0  0  0
   13.7575  -13.7437   -1.8868 N   0  0  0  0  0  0  0  0  0  0  0  0
   14.3761  -12.9998    1.3782 C   0  0  1  0  0  0  0  0  0  0  0  0
   13.6949  -11.9117    1.8514 O   0  0  0  0  0  0  0  0  0  0  0  0
  1  2  1  0
  3  2  1  1
  3  4  1  0
  4  5  1  0
  5  6  1  1
  7  6  1  1
  7  8  1  0
  8  9  1  0
  9 10  1  1
 10 11  1  0
  9 12  1  0
 12 13  1  6
 12 14  1  0
 14 15  1  1
 14 16  1  0
 16 17  1  6
  5 18  1  0
 18 19  1  6
 18 20  1  0
 20 21  1  6
 21 22  1  0
 22 23  2  0
 23 24  1  0
 24 25  2  0
 25 26  1  0
 26 27  2  0
 27 28  1  0
 28 29  2  0
 23 30  1  0
 30 31  2  0
 20 32  1  0
 32 33  1  1
 32  3  1  0
 16  7  1  0
 31 21  1  0
 29 24  1  0
M  END
>  <shape_align_shape_tanimoto>  (1) 
0.61653474973046685

>  <shape_align_color_tanimoto>  (1) 
0.054235471947402587

>  <metric>  (1) 
shape

>  <metric_score>  (1) 
0.617

>  <template_pid>  (1) 
6QLS

>  <template_shape_score>  (1) 
0.617

>  <template_color_score>  (1) 
0.054

>  <template_combo_score>  (1) 
0.335

$$$$
6QLS_color_pose
     RDKit          3D

 33 36  0  0  0  0  0  0  0  0999 V2000
   14.5924  -15.0739   -4.2462 O   0  0  0  0  0  0  0  0  0  0  0  0
   14.7588  -14.9695   -2.8757 C   0  0  0  0  0  0  0  0  0  0  0  0
   13.4611  -14.6412   -2.1541 C   0  0  1  0  0  0  0  0  0  0  0  0
   13.7829  -14.5698   -0.8085 O   0  0  0  0  0  0  0  0  0  0  0  0
   12.6950  -14.2486   -0.0060 C   0  0  1  0  0  0  0  0  0  0  0  0
   13.3416  -14.1862    1.6857 S   0  0  0  0  0  0  0  0  0  0  0  0
   12.0787  -13.8056    2.8749 C   0  0  2  0  0  0  0  0  0  0  0  0
   12.5638  -13.6967    4.1849 O   0  0  0  0  0  0  0  0  0  0  0  0
   11.6407  -12.9263    4.8731 C   0  0  2  0  0  0  0  0  0  0  0  0
   12.1163  -12.4249    6.1903 C   0  0  0  0  0  0  0  0  0  0  0  0
   13.2622  -11.6259    5.9726 O   0  0  0  0  0  0  0  0  0  0  0  0
   10.2778  -13.5674    4.9981 C   0  0  1  0  0  0  0  0  0  0  0  0
    9.3738  -12.5496    5.3036 O   0  0  0  0  0  0  0  0  0  0  0  0
    9.8318  -14.1789    3.6934 C   0  0  2  0  0  0  0  0  0  0  0  0
    8.7666  -15.0466    3.9149 O   0  0  0  0  0  0  0  0  0  0  0  0
   10.9803  -14.8714    2.9806 C   0  0  1  0  0  0  0  0  0  0  0  0
   10.5707  -15.3597    1.7709 O   0  0  0  0  0  0  0  0  0  0  0  0
   12.0723  -12.9278   -0.4139 C   0  0  2  0  0  0  0  0  0  0  0  0
   10.9648  -12.6521    0.3418 O   0  0  0  0  0  0  0  0  0  0  0  0
   11.6436  -13.0558   -1.8587 C   0  0  1  0  0  0  0  0  0  0  0  0
   11.0716  -11.7906   -2.3191 N   0  0  0  0  0  0  0  0  0  0  0  0
   10.9238  -11.4254   -3.6057 C   0  0  0  0  0  0  0  0  0  0  0  0
   10.3482  -10.1656   -3.6621 C   0  0  0  0  0  0  0  0  0  0  0  0
   10.0148   -9.3973   -4.8609 C   0  0  0  0  0  0  0  0  0  0  0  0
   10.2713   -9.9161   -6.1263 C   0  0  0  0  0  0  0  0  0  0  0  0
    9.9436   -9.1631   -7.2352 C   0  0  0  0  0  0  0  0  0  0  0  0
    9.3657   -7.9037   -7.1349 C   0  0  0  0  0  0  0  0  0  0  0  0
    9.1267   -7.4237   -5.8517 C   0  0  0  0  0  0  0  0  0  0  0  0
    9.4471   -8.1611   -4.7226 C   0  0  0  0  0  0  0  0  0  0  0  0
   10.1658   -9.8099   -2.3610 N   0  0  0  0  0  0  0  0  0  0  0  0
   10.6041  -10.7931   -1.5908 N   0  0  0  0  0  0  0  0  0  0  0  0
   12.9457  -13.3092   -2.6301 C   0  0  1  0  0  0  0  0  0  0  0  0
   13.8174  -12.2756   -2.2647 O   0  0  0  0  0  0  0  0  0  0  0  0
  1  2  1  0
  3  2  1  6
  3  4  1  0
  4  5  1  0
  5  6  1  1
  7  6  1  6
  7  8  1  0
  8  9  1  0
  9 10  1  1
 10 11  1  0
  9 12  1  0
 12 13  1  6
 12 14  1  0
 14 15  1  1
 14 16  1  0
 16 17  1  6
  5 18  1  0
 18 19  1  1
 18 20  1  0
 20 21  1  6
 21 22  1  0
 22 23  2  0
 23 24  1  0
 24 25  2  0
 25 26  1  0
 26 27  2  0
 27 28  1  0
 28 29  2  0
 23 30  1  0
 30 31  2  0
 20 32  1  0
 32 33  1  1
 32  3  1  0
 16  7  1  0
 31 21  1  0
 29 24  1  0
M  END
>  <shape_align_shape_tanimoto>  (2) 
0.59706309422127002

>  <shape_align_color_tanimoto>  (2) 
0.13138007532366869

>  <metric>  (2) 
color

>  <metric_score>  (2) 
0.131

>  <template_pid>  (2) 
6QLS

>  <template_shape_score>  (2) 
0.597

>  <template_color_score>  (2) 
0.131

>  <template_combo_score>  (2) 
0.364

$$$$
6QLS_combo_pose
     RDKit          3D

 33 36  0  0  0  0  0  0  0  0999 V2000
   14.5924  -15.0739   -4.2462 O   0  0  0  0  0  0  0  0  0  0  0  0
   14.7588  -14.9695   -2.8757 C   0  0  0  0  0  0  0  0  0  0  0  0
   13.4611  -14.6412   -2.1541 C   0  0  1  0  0  0  0  0  0  0  0  0
   13.7829  -14.5698   -0.8085 O   0  0  0  0  0  0  0  0  0  0  0  0
   12.6950  -14.2486   -0.0060 C   0  0  1  0  0  0  0  0  0  0  0  0
   13.3416  -14.1862    1.6857 S   0  0  0  0  0  0  0  0  0  0  0  0
   12.0787  -13.8056    2.8749 C   0  0  2  0  0  0  0  0  0  0  0  0
   12.5638  -13.6967    4.1849 O   0  0  0  0  0  0  0  0  0  0  0  0
   11.6407  -12.9263    4.8731 C   0  0  2  0  0  0  0  0  0  0  0  0
   12.1163  -12.4249    6.1903 C   0  0  0  0  0  0  0  0  0  0  0  0
   13.2622  -11.6259    5.9726 O   0  0  0  0  0  0  0  0  0  0  0  0
   10.2778  -13.5674    4.9981 C   0  0  1  0  0  0  0  0  0  0  0  0
    9.3738  -12.5496    5.3036 O   0  0  0  0  0  0  0  0  0  0  0  0
    9.8318  -14.1789    3.6934 C   0  0  2  0  0  0  0  0  0  0  0  0
    8.7666  -15.0466    3.9149 O   0  0  0  0  0  0  0  0  0  0  0  0
   10.9803  -14.8714    2.9806 C   0  0  1  0  0  0  0  0  0  0  0  0
   10.5707  -15.3597    1.7709 O   0  0  0  0  0  0  0  0  0  0  0  0
   12.0723  -12.9278   -0.4139 C   0  0  2  0  0  0  0  0  0  0  0  0
   10.9648  -12.6521    0.3418 O   0  0  0  0  0  0  0  0  0  0  0  0
   11.6436  -13.0558   -1.8587 C   0  0  1  0  0  0  0  0  0  0  0  0
   11.0716  -11.7906   -2.3191 N   0  0  0  0  0  0  0  0  0  0  0  0
   10.9238  -11.4254   -3.6057 C   0  0  0  0  0  0  0  0  0  0  0  0
   10.3482  -10.1656   -3.6621 C   0  0  0  0  0  0  0  0  0  0  0  0
   10.0148   -9.3973   -4.8609 C   0  0  0  0  0  0  0  0  0  0  0  0
   10.2713   -9.9161   -6.1263 C   0  0  0  0  0  0  0  0  0  0  0  0
    9.9436   -9.1631   -7.2352 C   0  0  0  0  0  0  0  0  0  0  0  0
    9.3657   -7.9037   -7.1349 C   0  0  0  0  0  0  0  0  0  0  0  0
    9.1267   -7.4237   -5.8517 C   0  0  0  0  0  0  0  0  0  0  0  0
    9.4471   -8.1611   -4.7226 C   0  0  0  0  0  0  0  0  0  0  0  0
   10.1658   -9.8099   -2.3610 N   0  0  0  0  0  0  0  0  0  0  0  0
   10.6041  -10.7931   -1.5908 N   0  0  0  0  0  0  0  0  0  0  0  0
   12.9457  -13.3092   -2.6301 C   0  0  1  0  0  0  0  0  0  0  0  0
   13.8174  -12.2756   -2.2647 O   0  0  0  0  0  0  0  0  0  0  0  0
  1  2  1  0
  3  2  1  6
  3  4  1  0
  4  5  1  0
  5  6  1  1
  7  6  1  6
  7  8  1  0
  8  9  1  0
  9 10  1  1
 10 11  1  0
  9 12  1  0
 12 13  1  6
 12 14  1  0
 14 15  1  1
 14 16  1  0
 16 17  1  6
  5 18  1  0
 18 19  1  1
 18 20  1  0
 20 21  1  6
 21 22  1  0
 22 23  2  0
 23 24  1  0
 24 25  2  0
 25 26  1  0
 26 27  2  0
 27 28  1  0
 28 29  2  0
 23 30  1  0
 30 31  2  0
 20 32  1  0
 32 33  1  1
 32  3  1  0
 16  7  1  0
 31 21  1  0
 29 24  1  0
M  END
>  <shape_align_shape_tanimoto>  (3) 
0.59706309422127002

>  <shape_align_color_tanimoto>  (3) 
0.13138007532366869

>  <metric>  (3) 
combo

>  <metric_score>  (3) 
0.364

>  <template_pid>  (3) 
6QLS

>  <template_shape_score>  (3) 
0.597

>  <template_color_score>  (3) 
0.131

>  <template_combo_score>  (3) 
0.364

$$$$
