2R59_shape_pose
     RDKit          3D

 35 37  0  0  0  0  0  0  0  0999 V2000
   19.6040    8.9203   13.8763 N   0  0  0  0  0  0  0  0  0  0  0  0
   19.1627    9.5749   12.6434 C   0  0  1  0  0  0  0  0  0  0  0  0
   20.1226   10.6795   12.3686 C   0  0  0  0  0  0  0  0  0  0  0  0
   21.5260   10.2661   12.1810 C   0  0  0  0  0  0  0  0  0  0  0  0
   22.3659   10.1503   13.2901 C   0  0  0  0  0  0  0  0  0  0  0  0
   23.6922    9.7737   13.1414 C   0  0  0  0  0  0  0  0  0  0  0  0
   24.2288    9.5004   11.8959 C   0  0  0  0  0  0  0  0  0  0  0  0
   23.4079    9.6119   10.7939 C   0  0  0  0  0  0  0  0  0  0  0  0
   22.0958    9.9863   10.9573 C   0  0  0  0  0  0  0  0  0  0  0  0
   19.0615    8.3172   11.3642 P   0  0  1  0  0  5  0  0  0  0  0  0
   20.4792    7.7733   11.1503 O   0  0  0  0  0  0  0  0  0  0  0  0
   18.1710    6.9943   11.9318 O   0  0  0  0  0  0  0  0  0  0  0  0
   18.4447    8.9643    9.8264 C   0  0  0  0  0  0  0  0  0  0  0  0
   17.2932    9.9033    9.9030 C   0  0  1  0  0  0  0  0  0  0  0  0
   16.9307   10.3304    8.4969 C   0  0  0  0  0  0  0  0  0  0  0  0
   16.5534    9.2356    7.5986 C   0  0  0  0  0  0  0  0  0  0  0  0
   15.2746    8.7550    7.4229 C   0  0  0  0  0  0  0  0  0  0  0  0
   14.9774    7.7186    6.5592 C   0  0  0  0  0  0  0  0  0  0  0  0
   15.9734    7.1226    5.8324 C   0  0  0  0  0  0  0  0  0  0  0  0
   17.2632    7.5717    5.9777 C   0  0  0  0  0  0  0  0  0  0  0  0
   17.5438    8.6010    6.8385 C   0  0  0  0  0  0  0  0  0  0  0  0
   16.1689    9.5043   10.7351 C   0  0  0  0  0  0  0  0  0  0  0  0
   16.0670    8.4419   11.3960 O   0  0  0  0  0  0  0  0  0  0  0  0
   15.0430   10.4012   10.8300 N   0  0  0  0  0  0  0  0  0  0  0  0
   13.9305   10.0317   11.6448 C   0  0  1  0  0  0  0  0  0  0  0  0
   13.6855   11.0813   12.7007 C   0  0  0  0  0  0  0  0  0  0  0  0
   14.8694   11.2409   13.5713 C   0  0  0  0  0  0  0  0  0  0  0  0
   15.8090   12.1785   13.2000 C   0  0  0  0  0  0  0  0  0  0  0  0
   16.9350   12.3829   13.9697 C   0  0  0  0  0  0  0  0  0  0  0  0
   17.0877   11.6247   15.1120 C   0  0  0  0  0  0  0  0  0  0  0  0
   16.1365   10.6782   15.4838 C   0  0  0  0  0  0  0  0  0  0  0  0
   15.0116   10.4794   14.7080 C   0  0  0  0  0  0  0  0  0  0  0  0
   12.6454    9.8987   10.9008 C   0  0  0  0  0  0  0  0  0  0  0  0
   12.5324   10.1040    9.6685 O   0  0  0  0  0  0  0  0  0  0  0  0
   11.5342    9.5259   11.6442 O   0  0  0  0  0  0  0  0  0  0  0  0
  2  1  1  1
  2  3  1  0
  3  4  1  0
  4  5  2  0
  5  6  1  0
  6  7  2  0
  7  8  1  0
  8  9  2  0
  2 10  1  0
 10 11  2  0
 10 12  1  1
 10 13  1  0
 14 13  1  6
 14 15  1  0
 15 16  1  0
 16 17  2  0
 17 18  1  0
 18 19  2  0
 19 20  1  0
 20 21  2  0
 14 22  1  0
 22 23  2  0
 22 24  1  0
 24 25  1  0
 25 26  1  1
 26 27  1  0
 27 28  2  0
 28 29  1  0
 29 30  2  0
 30 31  1  0
 31 32  2  0
 25 33  1  0
 33 34  2  0
 33 35  1  0
  9  4  1  0
 21 16  1  0
 32 27  1  0
M  CHG  1   1   1
M  END
>  <shape_align_shape_tanimoto>  (1) 
0.54806393666283959

>  <shape_align_color_tanimoto>  (1) 
0.048103058963625496

>  <metric>  (1) 
shape

>  <metric_score>  (1) 
0.548

>  <template_pid>  (1) 
2R59

>  <template_shape_score>  (1) 
0.548

>  <template_color_score>  (1) 
0.048

>  <template_combo_score>  (1) 
0.298

$$$$
2R59_color_pose
     RDKit          3D

 35 37  0  0  0  0  0  0  0  0999 V2000
   20.0937    8.8446   13.2404 N   0  0  0  0  0  0  0  0  0  0  0  0
   19.8632    9.7480   12.1279 C   0  0  1  0  0  0  0  0  0  0  0  0
   21.1841   10.3829   11.7715 C   0  0  0  0  0  0  0  0  0  0  0  0
   21.7737   11.1443   12.8753 C   0  0  0  0  0  0  0  0  0  0  0  0
   22.6348   10.6265   13.8203 C   0  0  0  0  0  0  0  0  0  0  0  0
   23.1269   11.4579   14.8224 C   0  0  0  0  0  0  0  0  0  0  0  0
   22.7851   12.7914   14.9094 C   0  0  0  0  0  0  0  0  0  0  0  0
   21.9132   13.3166   13.9528 C   0  0  0  0  0  0  0  0  0  0  0  0
   21.4313   12.4965   12.9692 C   0  0  0  0  0  0  0  0  0  0  0  0
   19.2262    8.8393   10.6818 P   0  0  1  0  0  5  0  0  0  0  0  0
   19.9241    9.2609    9.4406 O   0  0  0  0  0  0  0  0  0  0  0  0
   19.6608    7.1970   10.9349 O   0  0  0  0  0  0  0  0  0  0  0  0
   17.4273    8.8977   10.6149 C   0  0  0  0  0  0  0  0  0  0  0  0
   16.8788    9.9847    9.7646 C   0  0  1  0  0  0  0  0  0  0  0  0
   17.2185    9.9389    8.3308 C   0  0  0  0  0  0  0  0  0  0  0  0
   16.7889    8.7498    7.5609 C   0  0  0  0  0  0  0  0  0  0  0  0
   15.5889    8.7480    6.8370 C   0  0  0  0  0  0  0  0  0  0  0  0
   15.1703    7.6410    6.1234 C   0  0  0  0  0  0  0  0  0  0  0  0
   15.9100    6.4805    6.0847 C   0  0  0  0  0  0  0  0  0  0  0  0
   17.0895    6.4635    6.7874 C   0  0  0  0  0  0  0  0  0  0  0  0
   17.5077    7.5740    7.5026 C   0  0  0  0  0  0  0  0  0  0  0  0
   15.4951   10.3587   10.0687 C   0  0  0  0  0  0  0  0  0  0  0  0
   14.5108   10.3020    9.3056 O   0  0  0  0  0  0  0  0  0  0  0  0
   15.2310   10.8488   11.3968 N   0  0  0  0  0  0  0  0  0  0  0  0
   13.8801   11.2265   11.7296 C   0  0  1  0  0  0  0  0  0  0  0  0
   13.4072   10.3813   12.8933 C   0  0  0  0  0  0  0  0  0  0  0  0
   14.2772   10.5846   14.0785 C   0  0  0  0  0  0  0  0  0  0  0  0
   15.3894    9.7829   14.2628 C   0  0  0  0  0  0  0  0  0  0  0  0
   16.2421    9.9127   15.3387 C   0  0  0  0  0  0  0  0  0  0  0  0
   15.9928   10.8767   16.2820 C   0  0  0  0  0  0  0  0  0  0  0  0
   14.8864   11.6933   16.1226 C   0  0  0  0  0  0  0  0  0  0  0  0
   14.0457   11.5464   15.0381 C   0  0  0  0  0  0  0  0  0  0  0  0
   13.7476   12.6496   12.1334 C   0  0  0  0  0  0  0  0  0  0  0  0
   14.7676   13.4034   12.1700 O   0  0  0  0  0  0  0  0  0  0  0  0
   12.4964   13.1107   12.4603 O   0  0  0  0  0  0  0  0  0  0  0  0
  2  1  1  1
  2  3  1  0
  3  4  1  0
  4  5  2  0
  5  6  1  0
  6  7  2  0
  7  8  1  0
  8  9  2  0
  2 10  1  0
 10 11  2  0
 10 12  1  1
 10 13  1  0
 14 13  1  6
 14 15  1  0
 15 16  1  0
 16 17  2  0
 17 18  1  0
 18 19  2  0
 19 20  1  0
 20 21  2  0
 14 22  1  0
 22 23  2  0
 22 24  1  0
 24 25  1  0
 25 26  1  1
 26 27  1  0
 27 28  2  0
 28 29  1  0
 29 30  2  0
 30 31  1  0
 31 32  2  0
 25 33  1  0
 33 34  2  0
 33 35  1  0
  9  4  1  0
 21 16  1  0
 32 27  1  0
M  CHG  1   1   1
M  END
>  <shape_align_shape_tanimoto>  (2) 
0.50044972120670927

>  <shape_align_color_tanimoto>  (2) 
0.11799482383905224

>  <metric>  (2) 
color

>  <metric_score>  (2) 
0.118

>  <template_pid>  (2) 
2R59

>  <template_shape_score>  (2) 
0.500

>  <template_color_score>  (2) 
0.118

>  <template_combo_score>  (2) 
0.309

$$$$
2R59_combo_pose
     RDKit          3D

 35 37  0  0  0  0  0  0  0  0999 V2000
   20.0937    8.8446   13.2404 N   0  0  0  0  0  0  0  0  0  0  0  0
   19.8632    9.7480   12.1279 C   0  0  1  0  0  0  0  0  0  0  0  0
   21.1841   10.3829   11.7715 C   0  0  0  0  0  0  0  0  0  0  0  0
   21.7737   11.1443   12.8753 C   0  0  0  0  0  0  0  0  0  0  0  0
   22.6348   10.6265   13.8203 C   0  0  0  0  0  0  0  0  0  0  0  0
   23.1269   11.4579   14.8224 C   0  0  0  0  0  0  0  0  0  0  0  0
   22.7851   12.7914   14.9094 C   0  0  0  0  0  0  0  0  0  0  0  0
   21.9132   13.3166   13.9528 C   0  0  0  0  0  0  0  0  0  0  0  0
   21.4313   12.4965   12.9692 C   0  0  0  0  0  0  0  0  0  0  0  0
   19.2262    8.8393   10.6818 P   0  0  1  0  0  5  0  0  0  0  0  0
   19.9241    9.2609    9.4406 O   0  0  0  0  0  0  0  0  0  0  0  0
   19.6608    7.1970   10.9349 O   0  0  0  0  0  0  0  0  0  0  0  0
   17.4273    8.8977   10.6149 C   0  0  0  0  0  0  0  0  0  0  0  0
   16.8788    9.9847    9.7646 C   0  0  1  0  0  0  0  0  0  0  0  0
   17.2185    9.9389    8.3308 C   0  0  0  0  0  0  0  0  0  0  0  0
   16.7889    8.7498    7.5609 C   0  0  0  0  0  0  0  0  0  0  0  0
   15.5889    8.7480    6.8370 C   0  0  0  0  0  0  0  0  0  0  0  0
   15.1703    7.6410    6.1234 C   0  0  0  0  0  0  0  0  0  0  0  0
   15.9100    6.4805    6.0847 C   0  0  0  0  0  0  0  0  0  0  0  0
   17.0895    6.4635    6.7874 C   0  0  0  0  0  0  0  0  0  0  0  0
   17.5077    7.5740    7.5026 C   0  0  0  0  0  0  0  0  0  0  0  0
   15.4951   10.3587   10.0687 C   0  0  0  0  0  0  0  0  0  0  0  0
   14.5108   10.3020    9.3056 O   0  0  0  0  0  0  0  0  0  0  0  0
   15.2310   10.8488   11.3968 N   0  0  0  0  0  0  0  0  0  0  0  0
   13.8801   11.2265   11.7296 C   0  0  1  0  0  0  0  0  0  0  0  0
   13.4072   10.3813   12.8933 C   0  0  0  0  0  0  0  0  0  0  0  0
   14.2772   10.5846   14.0785 C   0  0  0  0  0  0  0  0  0  0  0  0
   15.3894    9.7829   14.2628 C   0  0  0  0  0  0  0  0  0  0  0  0
   16.2421    9.9127   15.3387 C   0  0  0  0  0  0  0  0  0  0  0  0
   15.9928   10.8767   16.2820 C   0  0  0  0  0  0  0  0  0  0  0  0
   14.8864   11.6933   16.1226 C   0  0  0  0  0  0  0  0  0  0  0  0
   14.0457   11.5464   15.0381 C   0  0  0  0  0  0  0  0  0  0  0  0
   13.7476   12.6496   12.1334 C   0  0  0  0  0  0  0  0  0  0  0  0
   14.7676   13.4034   12.1700 O   0  0  0  0  0  0  0  0  0  0  0  0
   12.4964   13.1107   12.4603 O   0  0  0  0  0  0  0  0  0  0  0  0
  2  1  1  1
  2  3  1  0
  3  4  1  0
  4  5  2  0
  5  6  1  0
  6  7  2  0
  7  8  1  0
  8  9  2  0
  2 10  1  0
 10 11  2  0
 10 12  1  1
 10 13  1  0
 14 13  1  6
 14 15  1  0
 15 16  1  0
 16 17  2  0
 17 18  1  0
 18 19  2  0
 19 20  1  0
 20 21  2  0
 14 22  1  0
 22 23  2  0
 22 24  1  0
 24 25  1  0
 25 26  1  1
 26 27  1  0
 27 28  2  0
 28 29  1  0
 29 30  2  0
 30 31  1  0
 31 32  2  0
 25 33  1  0
 33 34  2  0
 33 35  1  0
  9  4  1  0
 21 16  1  0
 32 27  1  0
M  CHG  1   1   1
M  END
>  <shape_align_shape_tanimoto>  (3) 
0.50044972120670927

>  <shape_align_color_tanimoto>  (3) 
0.11799482383905224

>  <metric>  (3) 
combo

>  <metric_score>  (3) 
0.309

>  <template_pid>  (3) 
2R59

>  <template_shape_score>  (3) 
0.500

>  <template_color_score>  (3) 
0.118

>  <template_combo_score>  (3) 
0.309

$$$$
