4AQH_shape_pose
     RDKit          3D

 23 25  0  0  0  0  0  0  0  0999 V2000
  -40.6662  160.2083   82.4987 C   0  0  0  0  0  0  0  0  0  0  0  0
  -40.4255  159.7812   81.0495 C   0  0  0  0  0  0  0  0  0  0  0  0
  -40.0802  160.9842   80.2112 C   0  0  0  0  0  0  0  0  0  0  0  0
  -41.7030  159.1915   80.5557 C   0  0  0  0  0  0  0  0  0  0  0  0
  -39.3377  158.8885   81.0832 O   0  0  0  0  0  0  0  0  0  0  0  0
  -38.8083  158.2781   79.9817 C   0  0  0  0  0  0  0  0  0  0  0  0
  -39.2662  158.4743   78.8261 O   0  0  0  0  0  0  0  0  0  0  0  0
  -37.7037  157.3911   80.1403 N   0  0  0  0  0  0  0  0  0  0  0  0
  -36.8603  156.5608   79.2889 C   0  0  0  0  0  0  0  0  0  0  0  0
  -36.8399  155.5992   80.4608 C   0  0  0  0  0  0  0  0  0  0  0  0
  -35.6318  154.8471   80.6432 N   0  0  0  0  0  0  0  0  0  0  0  0
  -35.4470  153.7957   79.9542 C   0  0  0  0  0  0  0  0  0  0  0  0
  -36.3506  153.3724   79.0629 N   0  0  0  0  0  0  0  0  0  0  0  0
  -36.1372  152.2469   78.3348 C   0  0  0  0  0  0  0  0  0  0  0  0
  -36.9702  151.8312   77.4936 O   0  0  0  0  0  0  0  0  0  0  0  0
  -34.9755  151.4951   78.4881 C   0  0  0  0  0  0  0  0  0  0  0  0
  -34.7597  150.3442   77.7420 C   0  0  0  0  0  0  0  0  0  0  0  0
  -33.5859  149.6438   77.9423 C   0  0  0  0  0  0  0  0  0  0  0  0
  -32.6713  150.1202   78.8812 C   0  0  0  0  0  0  0  0  0  0  0  0
  -32.9205  151.2395   79.5821 N   0  0  0  0  0  0  0  0  0  0  0  0
  -34.0579  151.9554   79.4166 C   0  0  0  0  0  0  0  0  0  0  0  0
  -34.3071  153.0765   80.1188 N   0  0  0  0  0  0  0  0  0  0  0  0
  -36.9017  156.9038   81.2516 C   0  0  0  0  0  0  0  0  0  0  0  0
  1  2  1  0
  2  3  1  0
  2  4  1  0
  2  5  1  0
  5  6  1  0
  6  7  2  0
  6  8  1  0
  8  9  1  0
  9 10  1  0
 10 11  1  0
 11 12  2  3
 12 13  1  0
 13 14  1  0
 14 15  2  0
 14 16  1  0
 16 17  2  0
 17 18  1  0
 18 19  2  0
 19 20  1  0
 20 21  2  0
 21 22  1  0
 10 23  1  0
 23  8  1  0
 22 12  1  0
 21 16  1  0
M  CHG  1  11   1
M  END
>  <shape_align_shape_tanimoto>  (1) 
0.43044524211534496

>  <shape_align_color_tanimoto>  (1) 
0.060735823682050813

>  <metric>  (1) 
shape

>  <metric_score>  (1) 
0.430

>  <template_pid>  (1) 
4AQH

>  <template_shape_score>  (1) 
0.430

>  <template_color_score>  (1) 
0.061

>  <template_combo_score>  (1) 
0.246

$$$$
4AQH_color_pose
     RDKit          3D

 23 25  0  0  0  0  0  0  0  0999 V2000
  -41.8234  156.2946   84.9655 C   0  0  0  0  0  0  0  0  0  0  0  0
  -41.9178  156.0764   83.4493 C   0  0  0  0  0  0  0  0  0  0  0  0
  -43.3810  155.7665   83.1965 C   0  0  0  0  0  0  0  0  0  0  0  0
  -41.1113  154.9036   83.0090 C   0  0  0  0  0  0  0  0  0  0  0  0
  -41.6652  157.2733   82.7519 O   0  0  0  0  0  0  0  0  0  0  0  0
  -40.5126  158.0025   82.8105 C   0  0  0  0  0  0  0  0  0  0  0  0
  -39.5341  157.6568   83.5209 O   0  0  0  0  0  0  0  0  0  0  0  0
  -40.3715  159.1977   82.0603 N   0  0  0  0  0  0  0  0  0  0  0  0
  -39.3927  160.2461   81.8161 C   0  0  0  0  0  0  0  0  0  0  0  0
  -39.8118  160.1717   80.4110 C   0  0  0  0  0  0  0  0  0  0  0  0
  -39.6926  159.0687   79.5487 N   0  0  0  0  0  0  0  0  0  0  0  0
  -38.9666  158.0268   79.5307 C   0  0  0  0  0  0  0  0  0  0  0  0
  -39.1254  157.1301   78.4975 N   0  0  0  0  0  0  0  0  0  0  0  0
  -38.4056  156.0060   78.3968 C   0  0  0  0  0  0  0  0  0  0  0  0
  -38.5818  155.2125   77.4361 O   0  0  0  0  0  0  0  0  0  0  0  0
  -37.4641  155.6951   79.3340 C   0  0  0  0  0  0  0  0  0  0  0  0
  -36.7285  154.5398   79.2251 C   0  0  0  0  0  0  0  0  0  0  0  0
  -35.7805  154.2839   80.2215 C   0  0  0  0  0  0  0  0  0  0  0  0
  -35.6057  155.1710   81.2668 C   0  0  0  0  0  0  0  0  0  0  0  0
  -36.3626  156.2865   81.3112 N   0  0  0  0  0  0  0  0  0  0  0  0
  -37.2838  156.5644   80.3699 C   0  0  0  0  0  0  0  0  0  0  0  0
  -38.0340  157.6807   80.4239 N   0  0  0  0  0  0  0  0  0  0  0  0
  -41.2098  159.9827   81.1171 C   0  0  0  0  0  0  0  0  0  0  0  0
  1  2  1  0
  2  3  1  0
  2  4  1  0
  2  5  1  0
  5  6  1  0
  6  7  2  0
  6  8  1  0
  8  9  1  0
  9 10  1  0
 10 11  1  0
 11 12  2  3
 12 13  1  0
 13 14  1  0
 14 15  2  0
 14 16  1  0
 16 17  2  0
 17 18  1  0
 18 19  2  0
 19 20  1  0
 20 21  2  0
 21 22  1  0
 10 23  1  0
 23  8  1  0
 22 12  1  0
 21 16  1  0
M  CHG  1  11   1
M  END
>  <shape_align_shape_tanimoto>  (2) 
0.25116193184527086

>  <shape_align_color_tanimoto>  (2) 
0.079898122409634523

>  <metric>  (2) 
color

>  <metric_score>  (2) 
0.080

>  <template_pid>  (2) 
4AQH

>  <template_shape_score>  (2) 
0.251

>  <template_color_score>  (2) 
0.080

>  <template_combo_score>  (2) 
0.166

$$$$
4AQH_combo_pose
     RDKit          3D

 23 25  0  0  0  0  0  0  0  0999 V2000
  -40.6662  160.2083   82.4987 C   0  0  0  0  0  0  0  0  0  0  0  0
  -40.4255  159.7812   81.0495 C   0  0  0  0  0  0  0  0  0  0  0  0
  -40.0802  160.9842   80.2112 C   0  0  0  0  0  0  0  0  0  0  0  0
  -41.7030  159.1915   80.5557 C   0  0  0  0  0  0  0  0  0  0  0  0
  -39.3377  158.8885   81.0832 O   0  0  0  0  0  0  0  0  0  0  0  0
  -38.8083  158.2781   79.9817 C   0  0  0  0  0  0  0  0  0  0  0  0
  -39.2662  158.4743   78.8261 O   0  0  0  0  0  0  0  0  0  0  0  0
  -37.7037  157.3911   80.1403 N   0  0  0  0  0  0  0  0  0  0  0  0
  -36.8603  156.5608   79.2889 C   0  0  0  0  0  0  0  0  0  0  0  0
  -36.8399  155.5992   80.4608 C   0  0  0  0  0  0  0  0  0  0  0  0
  -35.6318  154.8471   80.6432 N   0  0  0  0  0  0  0  0  0  0  0  0
  -35.4470  153.7957   79.9542 C   0  0  0  0  0  0  0  0  0  0  0  0
  -36.3506  153.3724   79.0629 N   0  0  0  0  0  0  0  0  0  0  0  0
  -36.1372  152.2469   78.3348 C   0  0  0  0  0  0  0  0  0  0  0  0
  -36.9702  151.8312   77.4936 O   0  0  0  0  0  0  0  0  0  0  0  0
  -34.9755  151.4951   78.4881 C   0  0  0  0  0  0  0  0  0  0  0  0
  -34.7597  150.3442   77.7420 C   0  0  0  0  0  0  0  0  0  0  0  0
  -33.5859  149.6438   77.9423 C   0  0  0  0  0  0  0  0  0  0  0  0
  -32.6713  150.1202   78.8812 C   0  0  0  0  0  0  0  0  0  0  0  0
  -32.9205  151.2395   79.5821 N   0  0  0  0  0  0  0  0  0  0  0  0
  -34.0579  151.9554   79.4166 C   0  0  0  0  0  0  0  0  0  0  0  0
  -34.3071  153.0765   80.1188 N   0  0  0  0  0  0  0  0  0  0  0  0
  -36.9017  156.9038   81.2516 C   0  0  0  0  0  0  0  0  0  0  0  0
  1  2  1  0
  2  3  1  0
  2  4  1  0
  2  5  1  0
  5  6  1  0
  6  7  2  0
  6  8  1  0
  8  9  1  0
  9 10  1  0
 10 11  1  0
 11 12  2  3
 12 13  1  0
 13 14  1  0
 14 15  2  0
 14 16  1  0
 16 17  2  0
 17 18  1  0
 18 19  2  0
 19 20  1  0
 20 21  2  0
 21 22  1  0
 10 23  1  0
 23  8  1  0
 22 12  1  0
 21 16  1  0
M  CHG  1  11   1
M  END
>  <shape_align_shape_tanimoto>  (3) 
0.43044524211534496

>  <shape_align_color_tanimoto>  (3) 
0.060735823682050813

>  <metric>  (3) 
combo

>  <metric_score>  (3) 
0.246

>  <template_pid>  (3) 
4AQH

>  <template_shape_score>  (3) 
0.430

>  <template_color_score>  (3) 
0.061

>  <template_combo_score>  (3) 
0.246

$$$$
