3JZG_shape_pose
     RDKit          3D

 35 34  0  0  0  0  0  0  0  0999 V2000
   -2.4736   39.5346  -16.7875 C   0  0  0  0  0  0  0  0  0  0  0  0
   -2.4782   39.3318  -15.2851 C   0  0  2  0  0  0  0  0  0  0  0  0
   -3.8271   39.0696  -14.8226 N   0  0  0  0  0  0  0  0  0  0  0  0
   -1.8961   40.5129  -14.5733 C   0  0  0  0  0  0  0  0  0  0  0  0
   -2.6174   41.1113  -13.7149 O   0  0  0  0  0  0  0  0  0  0  0  0
   -0.5708   40.9320  -14.8685 N   0  0  0  0  0  0  0  0  0  0  0  0
    0.0011   42.1083  -14.1562 C   0  0  1  0  0  0  0  0  0  0  0  0
    1.1656   41.5655  -13.4415 C   0  0  0  0  0  0  0  0  0  0  0  0
    1.9964   42.4362  -12.5969 C   0  0  0  0  0  0  0  0  0  0  0  0
    1.2543   43.0959  -11.4548 C   0  0  0  0  0  0  0  0  0  0  0  0
    2.2148   43.9238  -10.7138 N   0  0  0  0  0  0  0  0  0  0  0  0
    1.7185   44.6319   -9.5948 C   0  0  0  0  0  0  0  0  0  0  0  0
    2.5429   45.4757   -8.7832 N   0  0  0  0  0  0  0  0  0  0  0  0
    0.4619   44.5282   -9.2693 N   0  0  0  0  0  0  0  0  0  0  0  0
    0.2566   43.1830  -15.1206 C   0  0  0  0  0  0  0  0  0  0  0  0
   -0.0291   42.9319  -16.3361 O   0  0  0  0  0  0  0  0  0  0  0  0
    0.7787   44.4568  -14.8468 N   0  0  0  0  0  0  0  0  0  0  0  0
    0.9816   45.4535  -15.8789 C   0  0  1  0  0  0  0  0  0  0  0  0
    0.0018   46.5948  -15.7660 C   0  0  0  0  0  0  0  0  0  0  0  0
    0.0926   47.3265  -14.4520 C   0  0  0  0  0  0  0  0  0  0  0  0
   -0.9414   48.4218  -14.5065 C   0  0  0  0  0  0  0  0  0  0  0  0
   -1.0333   49.2909  -13.3136 C   0  0  0  0  0  0  0  0  0  0  0  0
   -1.3549   48.6641  -12.0692 N   0  0  0  0  0  0  0  0  0  0  0  0
   -0.1565   48.5324  -11.2486 C   0  0  0  0  0  0  0  0  0  0  0  0
   -2.0396   47.4144  -12.1571 C   0  0  0  0  0  0  0  0  0  0  0  0
   -2.2271   49.5601  -11.2634 C   0  0  0  0  0  0  0  0  0  0  0  0
    2.3523   45.8692  -16.1130 C   0  0  0  0  0  0  0  0  0  0  0  0
    2.5548   46.7502  -17.0221 O   0  0  0  0  0  0  0  0  0  0  0  0
    3.5112   45.4086  -15.4447 N   0  0  0  0  0  0  0  0  0  0  0  0
    4.8511   45.8817  -15.7454 C   0  0  1  0  0  0  0  0  0  0  0  0
    5.5225   46.5023  -14.5602 C   0  0  0  0  0  0  0  0  0  0  0  0
    6.7913   46.9214  -14.9454 O   0  0  0  0  0  0  0  0  0  0  0  0
    5.5974   44.6768  -16.2344 C   0  0  0  0  0  0  0  0  0  0  0  0
    6.4788   44.1057  -15.5492 O   0  0  0  0  0  0  0  0  0  0  0  0
    5.2367   44.2333  -17.5187 O   0  0  0  0  0  0  0  0  0  0  0  0
  2  1  1  6
  2  3  1  0
  2  4  1  0
  4  5  2  0
  4  6  1  0
  6  7  1  0
  7  8  1  6
  8  9  1  0
  9 10  1  0
 10 11  1  0
 11 12  1  0
 12 13  1  0
 12 14  2  0
  7 15  1  0
 15 16  2  0
 15 17  1  0
 17 18  1  0
 18 19  1  1
 19 20  1  0
 20 21  1  0
 21 22  1  0
 22 23  1  0
 23 24  1  0
 23 25  1  0
 23 26  1  0
 18 27  1  0
 27 28  2  0
 27 29  1  0
 29 30  1  0
 30 31  1  1
 31 32  1  0
 30 33  1  0
 33 34  2  0
 33 35  1  0
M  CHG  4   3   1  14   1  23   1  35  -1
M  END
>  <shape_align_shape_tanimoto>  (1) 
0.22187538624282604

>  <shape_align_color_tanimoto>  (1) 
0.013581436038713262

>  <metric>  (1) 
shape

>  <metric_score>  (1) 
0.222

>  <template_pid>  (1) 
3JZG

>  <template_shape_score>  (1) 
0.222

>  <template_color_score>  (1) 
0.014

>  <template_combo_score>  (1) 
0.118

$$$$
3JZG_color_pose
     RDKit          3D

 35 34  0  0  0  0  0  0  0  0999 V2000
   -2.0203   49.3469  -10.7028 C   0  0  0  0  0  0  0  0  0  0  0  0
   -1.7343   48.2113   -9.7692 C   0  0  2  0  0  0  0  0  0  0  0  0
   -1.3218   48.6984   -8.4858 N   0  0  0  0  0  0  0  0  0  0  0  0
   -0.7696   47.2288  -10.3383 C   0  0  0  0  0  0  0  0  0  0  0  0
    0.2382   46.9588   -9.6637 O   0  0  0  0  0  0  0  0  0  0  0  0
   -1.0674   46.6684  -11.6112 N   0  0  0  0  0  0  0  0  0  0  0  0
   -0.1822   45.7029  -12.2409 C   0  0  1  0  0  0  0  0  0  0  0  0
   -0.8566   44.4119  -12.5396 C   0  0  0  0  0  0  0  0  0  0  0  0
   -1.4293   43.6823  -11.3498 C   0  0  0  0  0  0  0  0  0  0  0  0
   -0.3155   43.3594  -10.3877 C   0  0  0  0  0  0  0  0  0  0  0  0
   -0.7793   42.6484   -9.2333 N   0  0  0  0  0  0  0  0  0  0  0  0
   -1.2600   41.3323   -9.1955 C   0  0  0  0  0  0  0  0  0  0  0  0
   -1.6803   40.8314   -7.9116 N   0  0  0  0  0  0  0  0  0  0  0  0
   -1.3408   40.5794  -10.2125 N   0  0  0  0  0  0  0  0  0  0  0  0
    0.3683   46.2353  -13.5214 C   0  0  0  0  0  0  0  0  0  0  0  0
    0.0390   47.3937  -13.9253 O   0  0  0  0  0  0  0  0  0  0  0  0
    1.2605   45.4051  -14.2552 N   0  0  0  0  0  0  0  0  0  0  0  0
    1.7989   45.9158  -15.5000 C   0  0  1  0  0  0  0  0  0  0  0  0
    3.3105   46.0533  -15.2878 C   0  0  0  0  0  0  0  0  0  0  0  0
    3.9572   44.7294  -14.9527 C   0  0  0  0  0  0  0  0  0  0  0  0
    5.4668   44.8988  -14.7497 C   0  0  0  0  0  0  0  0  0  0  0  0
    6.0446   43.5498  -14.4205 C   0  0  0  0  0  0  0  0  0  0  0  0
    7.4684   43.5860  -14.2067 N   0  0  0  0  0  0  0  0  0  0  0  0
    8.0614   44.5435  -15.1188 C   0  0  0  0  0  0  0  0  0  0  0  0
    8.1071   42.3185  -14.3635 C   0  0  0  0  0  0  0  0  0  0  0  0
    7.7393   44.0535  -12.8488 C   0  0  0  0  0  0  0  0  0  0  0  0
    1.5304   45.0337  -16.6418 C   0  0  0  0  0  0  0  0  0  0  0  0
    0.8879   43.9700  -16.4426 O   0  0  0  0  0  0  0  0  0  0  0  0
    2.0125   45.4285  -17.9207 N   0  0  0  0  0  0  0  0  0  0  0  0
    1.7420   44.5497  -19.0426 C   0  0  1  0  0  0  0  0  0  0  0  0
    0.8690   45.2059  -20.0951 C   0  0  0  0  0  0  0  0  0  0  0  0
    1.4304   46.3438  -20.6324 O   0  0  0  0  0  0  0  0  0  0  0  0
    3.0279   44.1206  -19.6497 C   0  0  0  0  0  0  0  0  0  0  0  0
    3.3682   44.6468  -20.7633 O   0  0  0  0  0  0  0  0  0  0  0  0
    3.8377   43.1763  -19.0280 O   0  0  0  0  0  0  0  0  0  0  0  0
  2  1  1  6
  2  3  1  0
  2  4  1  0
  4  5  2  0
  4  6  1  0
  6  7  1  0
  7  8  1  6
  8  9  1  0
  9 10  1  0
 10 11  1  0
 11 12  1  0
 12 13  1  0
 12 14  2  0
  7 15  1  0
 15 16  2  0
 15 17  1  0
 17 18  1  0
 18 19  1  1
 19 20  1  0
 20 21  1  0
 21 22  1  0
 22 23  1  0
 23 24  1  0
 23 25  1  0
 23 26  1  0
 18 27  1  0
 27 28  2  0
 27 29  1  0
 29 30  1  0
 30 31  1  6
 31 32  1  0
 30 33  1  0
 33 34  2  0
 33 35  1  0
M  CHG  4   3   1  14   1  23   1  35  -1
M  END
>  <shape_align_shape_tanimoto>  (2) 
0.20570253515583445

>  <shape_align_color_tanimoto>  (2) 
0.049107966654610494

>  <metric>  (2) 
color

>  <metric_score>  (2) 
0.049

>  <template_pid>  (2) 
3JZG

>  <template_shape_score>  (2) 
0.206

>  <template_color_score>  (2) 
0.049

>  <template_combo_score>  (2) 
0.127

$$$$
3JZG_combo_pose
     RDKit          3D

 35 34  0  0  0  0  0  0  0  0999 V2000
   -2.0203   49.3469  -10.7028 C   0  0  0  0  0  0  0  0  0  0  0  0
   -1.7343   48.2113   -9.7692 C   0  0  2  0  0  0  0  0  0  0  0  0
   -1.3218   48.6984   -8.4858 N   0  0  0  0  0  0  0  0  0  0  0  0
   -0.7696   47.2288  -10.3383 C   0  0  0  0  0  0  0  0  0  0  0  0
    0.2382   46.9588   -9.6637 O   0  0  0  0  0  0  0  0  0  0  0  0
   -1.0674   46.6684  -11.6112 N   0  0  0  0  0  0  0  0  0  0  0  0
   -0.1822   45.7029  -12.2409 C   0  0  1  0  0  0  0  0  0  0  0  0
   -0.8566   44.4119  -12.5396 C   0  0  0  0  0  0  0  0  0  0  0  0
   -1.4293   43.6823  -11.3498 C   0  0  0  0  0  0  0  0  0  0  0  0
   -0.3155   43.3594  -10.3877 C   0  0  0  0  0  0  0  0  0  0  0  0
   -0.7793   42.6484   -9.2333 N   0  0  0  0  0  0  0  0  0  0  0  0
   -1.2600   41.3323   -9.1955 C   0  0  0  0  0  0  0  0  0  0  0  0
   -1.6803   40.8314   -7.9116 N   0  0  0  0  0  0  0  0  0  0  0  0
   -1.3408   40.5794  -10.2125 N   0  0  0  0  0  0  0  0  0  0  0  0
    0.3683   46.2353  -13.5214 C   0  0  0  0  0  0  0  0  0  0  0  0
    0.0390   47.3937  -13.9253 O   0  0  0  0  0  0  0  0  0  0  0  0
    1.2605   45.4051  -14.2552 N   0  0  0  0  0  0  0  0  0  0  0  0
    1.7989   45.9158  -15.5000 C   0  0  1  0  0  0  0  0  0  0  0  0
    3.3105   46.0533  -15.2878 C   0  0  0  0  0  0  0  0  0  0  0  0
    3.9572   44.7294  -14.9527 C   0  0  0  0  0  0  0  0  0  0  0  0
    5.4668   44.8988  -14.7497 C   0  0  0  0  0  0  0  0  0  0  0  0
    6.0446   43.5498  -14.4205 C   0  0  0  0  0  0  0  0  0  0  0  0
    7.4684   43.5860  -14.2067 N   0  0  0  0  0  0  0  0  0  0  0  0
    8.0614   44.5435  -15.1188 C   0  0  0  0  0  0  0  0  0  0  0  0
    8.1071   42.3185  -14.3635 C   0  0  0  0  0  0  0  0  0  0  0  0
    7.7393   44.0535  -12.8488 C   0  0  0  0  0  0  0  0  0  0  0  0
    1.5304   45.0337  -16.6418 C   0  0  0  0  0  0  0  0  0  0  0  0
    0.8879   43.9700  -16.4426 O   0  0  0  0  0  0  0  0  0  0  0  0
    2.0125   45.4285  -17.9207 N   0  0  0  0  0  0  0  0  0  0  0  0
    1.7420   44.5497  -19.0426 C   0  0  1  0  0  0  0  0  0  0  0  0
    0.8690   45.2059  -20.0951 C   0  0  0  0  0  0  0  0  0  0  0  0
    1.4304   46.3438  -20.6324 O   0  0  0  0  0  0  0  0  0  0  0  0
    3.0279   44.1206  -19.6497 C   0  0  0  0  0  0  0  0  0  0  0  0
    3.3682   44.6468  -20.7633 O   0  0  0  0  0  0  0  0  0  0  0  0
    3.8377   43.1763  -19.0280 O   0  0  0  0  0  0  0  0  0  0  0  0
  2  1  1  6
  2  3  1  0
  2  4  1  0
  4  5  2  0
  4  6  1  0
  6  7  1  0
  7  8  1  6
  8  9  1  0
  9 10  1  0
 10 11  1  0
 11 12  1  0
 12 13  1  0
 12 14  2  0
  7 15  1  0
 15 16  2  0
 15 17  1  0
 17 18  1  0
 18 19  1  1
 19 20  1  0
 20 21  1  0
 21 22  1  0
 22 23  1  0
 23 24  1  0
 23 25  1  0
 23 26  1  0
 18 27  1  0
 27 28  2  0
 27 29  1  0
 29 30  1  0
 30 31  1  6
 31 32  1  0
 30 33  1  0
 33 34  2  0
 33 35  1  0
M  CHG  4   3   1  14   1  23   1  35  -1
M  END
>  <shape_align_shape_tanimoto>  (3) 
0.20570253515583445

>  <shape_align_color_tanimoto>  (3) 
0.049107966654610494

>  <metric>  (3) 
combo

>  <metric_score>  (3) 
0.127

>  <template_pid>  (3) 
3JZG

>  <template_shape_score>  (3) 
0.206

>  <template_color_score>  (3) 
0.049

>  <template_combo_score>  (3) 
0.127

$$$$
