1ERO_shape_pose
     RDKit          3D

 24 25  0  0  0  0  0  0  0  0999 V2000
   32.4901   63.5104   -0.0378 O   0  0  0  0  0  0  0  0  0  0  0  0
   33.4241   64.0316    0.6652 C   0  0  0  0  0  0  0  0  0  0  0  0
   34.7923   63.4742    0.6119 C   0  0  0  0  0  0  0  0  0  0  0  0
   34.9890   62.2489    1.4076 C   0  0  0  0  0  0  0  0  0  0  0  0
   35.5367   62.4586    2.6895 C   0  0  0  0  0  0  0  0  0  0  0  0
   35.8066   61.4298    3.5534 C   0  0  0  0  0  0  0  0  0  0  0  0
   35.5220   60.1583    3.1293 C   0  0  0  0  0  0  0  0  0  0  0  0
   34.9865   59.9491    1.8815 C   0  0  0  0  0  0  0  0  0  0  0  0
   34.7048   60.9748    0.9873 C   0  0  0  0  0  0  0  0  0  0  0  0
   33.2024   65.1457    1.5119 N   0  0  0  0  0  0  0  0  0  0  0  0
   31.9917   65.8632    1.6971 C   0  0  1  0  0  0  0  0  0  0  0  0
   31.0934   65.1623    2.6844 C   0  0  0  0  0  0  0  0  0  0  0  0
   31.6599   64.9363    4.0127 C   0  0  0  0  0  0  0  0  0  0  0  0
   31.7384   65.8674    5.0280 C   0  0  0  0  0  0  0  0  0  0  0  0
   32.2299   65.4722    6.2486 C   0  0  0  0  0  0  0  0  0  0  0  0
   32.6531   64.1857    6.5229 C   0  0  0  0  0  0  0  0  0  0  0  0
   32.5781   63.2661    5.5263 C   0  0  0  0  0  0  0  0  0  0  0  0
   32.9725   61.8497    5.7034 C   0  0  0  0  0  0  0  0  0  0  0  0
   32.8590   61.0278    4.7809 O   0  0  0  0  0  0  0  0  0  0  0  0
   33.4710   61.5226    6.9761 O   0  0  0  0  0  0  0  0  0  0  0  0
   32.0936   63.6411    4.3072 C   0  0  0  0  0  0  0  0  0  0  0  0
   32.1374   67.3608    2.0878 B   0  0  0  0  0  0  0  0  0  0  0  0
   33.3685   68.0706    2.3966 O   0  0  0  0  0  0  0  0  0  0  0  0
   30.9302   68.1924    1.8699 O   0  0  0  0  0  0  0  0  0  0  0  0
  1  2  2  0
  2  3  1  0
  3  4  1  0
  4  5  2  0
  5  6  1  0
  6  7  2  0
  7  8  1  0
  8  9  2  0
  2 10  1  0
 10 11  1  0
 11 12  1  1
 12 13  1  0
 13 14  2  0
 14 15  1  0
 15 16  2  0
 16 17  1  0
 17 18  1  0
 18 19  2  0
 18 20  1  0
 17 21  2  0
 11 22  1  0
 22 23  1  0
 22 24  1  0
  9  4  1  0
 21 13  1  0
M  CHG  1  20  -1
M  END
>  <shape_align_shape_tanimoto>  (1) 
0.67523116735695821

>  <shape_align_color_tanimoto>  (1) 
0.078936242957820757

>  <metric>  (1) 
shape

>  <metric_score>  (1) 
0.675

>  <template_pid>  (1) 
1ERO

>  <template_shape_score>  (1) 
0.675

>  <template_color_score>  (1) 
0.079

>  <template_combo_score>  (1) 
0.377

$$$$
1ERO_color_pose
     RDKit          3D

 24 25  0  0  0  0  0  0  0  0999 V2000
   32.9547   64.5323   -0.2581 O   0  0  0  0  0  0  0  0  0  0  0  0
   33.5104   64.4342    0.8597 C   0  0  0  0  0  0  0  0  0  0  0  0
   34.7390   63.5736    0.9135 C   0  0  0  0  0  0  0  0  0  0  0  0
   35.0140   63.0201   -0.4297 C   0  0  0  0  0  0  0  0  0  0  0  0
   34.4273   61.7972   -0.7372 C   0  0  0  0  0  0  0  0  0  0  0  0
   34.6141   61.1836   -1.9633 C   0  0  0  0  0  0  0  0  0  0  0  0
   35.4112   61.8246   -2.8921 C   0  0  0  0  0  0  0  0  0  0  0  0
   35.9927   63.0326   -2.5925 C   0  0  0  0  0  0  0  0  0  0  0  0
   35.8091   63.6543   -1.3629 C   0  0  0  0  0  0  0  0  0  0  0  0
   33.0253   65.0823    1.9961 N   0  0  0  0  0  0  0  0  0  0  0  0
   31.8484   65.9048    1.9372 C   0  0  1  0  0  0  0  0  0  0  0  0
   30.7707   65.1824    2.7257 C   0  0  0  0  0  0  0  0  0  0  0  0
   31.1456   64.9656    4.1396 C   0  0  0  0  0  0  0  0  0  0  0  0
   30.8584   65.8772    5.1411 C   0  0  0  0  0  0  0  0  0  0  0  0
   31.2203   65.6539    6.4662 C   0  0  0  0  0  0  0  0  0  0  0  0
   31.8844   64.4841    6.7738 C   0  0  0  0  0  0  0  0  0  0  0  0
   32.1894   63.5496    5.8038 C   0  0  0  0  0  0  0  0  0  0  0  0
   32.8913   62.3081    6.1140 C   0  0  0  0  0  0  0  0  0  0  0  0
   33.1223   61.5228    5.1628 O   0  0  0  0  0  0  0  0  0  0  0  0
   33.2674   62.0470    7.4100 O   0  0  0  0  0  0  0  0  0  0  0  0
   31.8168   63.7978    4.4904 C   0  0  0  0  0  0  0  0  0  0  0  0
   32.0245   67.3908    2.3433 B   0  0  0  0  0  0  0  0  0  0  0  0
   32.6222   67.7141    3.6587 O   0  0  0  0  0  0  0  0  0  0  0  0
   32.3754   68.3911    1.3072 O   0  0  0  0  0  0  0  0  0  0  0  0
  1  2  2  0
  2  3  1  0
  3  4  1  0
  4  5  2  0
  5  6  1  0
  6  7  2  0
  7  8  1  0
  8  9  2  0
  2 10  1  0
 10 11  1  0
 11 12  1  1
 12 13  1  0
 13 14  2  0
 14 15  1  0
 15 16  2  0
 16 17  1  0
 17 18  1  0
 18 19  2  0
 18 20  1  0
 17 21  2  0
 11 22  1  0
 22 23  1  0
 22 24  1  0
  9  4  1  0
 21 13  1  0
M  CHG  1  20  -1
M  END
>  <shape_align_shape_tanimoto>  (2) 
0.50625664913806268

>  <shape_align_color_tanimoto>  (2) 
0.10996920318513073

>  <metric>  (2) 
color

>  <metric_score>  (2) 
0.110

>  <template_pid>  (2) 
1ERO

>  <template_shape_score>  (2) 
0.506

>  <template_color_score>  (2) 
0.110

>  <template_combo_score>  (2) 
0.308

$$$$
1ERO_combo_pose
     RDKit          3D

 24 25  0  0  0  0  0  0  0  0999 V2000
   32.8911   64.6167   -0.6870 O   0  0  0  0  0  0  0  0  0  0  0  0
   33.4996   64.1239    0.3125 C   0  0  0  0  0  0  0  0  0  0  0  0
   34.5376   63.1159    0.0184 C   0  0  0  0  0  0  0  0  0  0  0  0
   34.9460   62.3052    1.1815 C   0  0  0  0  0  0  0  0  0  0  0  0
   34.3686   61.1150    1.5469 C   0  0  0  0  0  0  0  0  0  0  0  0
   34.8810   60.4830    2.6609 C   0  0  0  0  0  0  0  0  0  0  0  0
   35.9206   60.9736    3.4110 C   0  0  0  0  0  0  0  0  0  0  0  0
   36.4982   62.1625    3.0472 C   0  0  0  0  0  0  0  0  0  0  0  0
   36.0060   62.8075    1.9447 C   0  0  0  0  0  0  0  0  0  0  0  0
   33.1321   64.5804    1.5870 N   0  0  0  0  0  0  0  0  0  0  0  0
   32.0989   65.5799    1.6862 C   0  0  1  0  0  0  0  0  0  0  0  0
   30.9710   65.0278    2.5194 C   0  0  0  0  0  0  0  0  0  0  0  0
   31.4642   64.6922    3.8729 C   0  0  0  0  0  0  0  0  0  0  0  0
   31.4259   65.7258    4.8114 C   0  0  0  0  0  0  0  0  0  0  0  0
   31.8388   65.5623    6.1122 C   0  0  0  0  0  0  0  0  0  0  0  0
   32.3038   64.3171    6.4751 C   0  0  0  0  0  0  0  0  0  0  0  0
   32.3461   63.2868    5.5548 C   0  0  0  0  0  0  0  0  0  0  0  0
   32.8420   62.0039    6.0244 C   0  0  0  0  0  0  0  0  0  0  0  0
   33.2369   61.8211    7.2204 O   0  0  0  0  0  0  0  0  0  0  0  0
   32.9086   60.9102    5.1875 O   0  0  0  0  0  0  0  0  0  0  0  0
   31.9291   63.4522    4.2397 C   0  0  0  0  0  0  0  0  0  0  0  0
   32.7562   66.8579    2.3940 B   0  0  0  0  0  0  0  0  0  0  0  0
   34.1014   66.8186    2.9625 O   0  0  0  0  0  0  0  0  0  0  0  0
   32.2525   68.1729    2.0107 O   0  0  0  0  0  0  0  0  0  0  0  0
  1  2  2  0
  2  3  1  0
  3  4  1  0
  4  5  2  0
  5  6  1  0
  6  7  2  0
  7  8  1  0
  8  9  2  0
  2 10  1  0
 10 11  1  0
 11 12  1  1
 12 13  1  0
 13 14  2  0
 14 15  1  0
 15 16  2  0
 16 17  1  0
 17 18  1  0
 18 19  2  0
 18 20  1  0
 17 21  2  0
 11 22  1  0
 22 23  1  0
 22 24  1  0
  9  4  1  0
 21 13  1  0
M  CHG  1  20  -1
M  END
>  <shape_align_shape_tanimoto>  (3) 
0.65689789881839367

>  <shape_align_color_tanimoto>  (3) 
0.10366419894864259

>  <metric>  (3) 
combo

>  <metric_score>  (3) 
0.380

>  <template_pid>  (3) 
1ERO

>  <template_shape_score>  (3) 
0.657

>  <template_color_score>  (3) 
0.104

>  <template_combo_score>  (3) 
0.380

$$$$
