3N2C_shape_pose
     RDKit          3D

 12 12  0  0  0  0  0  0  0  0999 V2000
  -29.4723   89.5997   20.2499 C   0  0  0  0  0  0  0  0  0  0  0  0
  -29.4535   91.3123   19.6614 P   0  0  1  0  0  5  0  0  0  0  0  0
  -30.1701   92.1515   20.7021 O   0  0  0  0  0  0  0  0  0  0  0  0
  -27.8331   91.8545   19.6998 O   0  0  0  0  0  0  0  0  0  0  0  0
  -30.1064   91.5755   18.1526 N   0  0  0  0  0  0  0  0  0  0  0  0
  -29.2915   91.6955   17.0150 C   0  0  0  0  0  0  0  0  0  0  0  0
  -30.2414   92.1912   15.9428 C   0  0  0  0  0  0  0  0  0  0  0  0
  -31.6398   91.9916   16.5225 C   0  0  0  0  0  0  0  0  0  0  0  0
  -31.3211   92.2681   17.9976 C   0  0  1  0  0  0  0  0  0  0  0  0
  -32.3974   91.8715   18.8895 C   0  0  0  0  0  0  0  0  0  0  0  0
  -32.3378   90.9771   19.7730 O   0  0  0  0  0  0  0  0  0  0  0  0
  -33.6285   92.5313   18.7764 O   0  0  0  0  0  0  0  0  0  0  0  0
  2  1  1  1
  2  3  2  0
  2  4  1  0
  2  5  1  0
  5  6  1  0
  6  7  1  0
  7  8  1  0
  8  9  1  0
  9 10  1  1
 10 11  2  0
 10 12  1  0
  9  5  1  0
M  END
>  <shape_align_shape_tanimoto>  (1) 
0.58911466612044405

>  <shape_align_color_tanimoto>  (1) 
0.12559471386799884

>  <metric>  (1) 
shape

>  <metric_score>  (1) 
0.589

>  <template_pid>  (1) 
3N2C

>  <template_shape_score>  (1) 
0.589

>  <template_color_score>  (1) 
0.126

>  <template_combo_score>  (1) 
0.357

$$$$
3N2C_color_pose
     RDKit          3D

 12 12  0  0  0  0  0  0  0  0999 V2000
  -33.5113   93.3349   19.5466 C   0  0  0  0  0  0  0  0  0  0  0  0
  -32.7440   91.8996   18.7661 P   0  0  1  0  0  5  0  0  0  0  0  0
  -32.4255   90.8804   19.8594 O   0  0  0  0  0  0  0  0  0  0  0  0
  -33.8502   91.1419   17.7263 O   0  0  0  0  0  0  0  0  0  0  0  0
  -31.2672   92.3056   17.9607 N   0  0  0  0  0  0  0  0  0  0  0  0
  -31.3689   92.3320   16.5162 C   0  0  0  0  0  0  0  0  0  0  0  0
  -29.9196   92.2731   16.0887 C   0  0  0  0  0  0  0  0  0  0  0  0
  -29.2420   91.4191   17.1240 C   0  0  0  0  0  0  0  0  0  0  0  0
  -30.2610   91.3197   18.2280 C   0  0  1  0  0  0  0  0  0  0  0  0
  -29.6242   91.4844   19.5656 C   0  0  0  0  0  0  0  0  0  0  0  0
  -28.7175   90.6410   19.8731 O   0  0  0  0  0  0  0  0  0  0  0  0
  -29.9923   92.5035   20.4431 O   0  0  0  0  0  0  0  0  0  0  0  0
  2  1  1  1
  2  3  2  0
  2  4  1  0
  2  5  1  0
  5  6  1  0
  6  7  1  0
  7  8  1  0
  8  9  1  0
  9 10  1  1
 10 11  2  0
 10 12  1  0
  9  5  1  0
M  END
>  <shape_align_shape_tanimoto>  (2) 
0.56920352185684087

>  <shape_align_color_tanimoto>  (2) 
0.21875757553936215

>  <metric>  (2) 
color

>  <metric_score>  (2) 
0.219

>  <template_pid>  (2) 
3N2C

>  <template_shape_score>  (2) 
0.569

>  <template_color_score>  (2) 
0.219

>  <template_combo_score>  (2) 
0.394

$$$$
3N2C_combo_pose
     RDKit          3D

 12 12  0  0  0  0  0  0  0  0999 V2000
  -33.5113   93.3349   19.5466 C   0  0  0  0  0  0  0  0  0  0  0  0
  -32.7440   91.8996   18.7661 P   0  0  1  0  0  5  0  0  0  0  0  0
  -32.4255   90.8804   19.8594 O   0  0  0  0  0  0  0  0  0  0  0  0
  -33.8502   91.1419   17.7263 O   0  0  0  0  0  0  0  0  0  0  0  0
  -31.2672   92.3056   17.9607 N   0  0  0  0  0  0  0  0  0  0  0  0
  -31.3689   92.3320   16.5162 C   0  0  0  0  0  0  0  0  0  0  0  0
  -29.9196   92.2731   16.0887 C   0  0  0  0  0  0  0  0  0  0  0  0
  -29.2420   91.4191   17.1240 C   0  0  0  0  0  0  0  0  0  0  0  0
  -30.2610   91.3197   18.2280 C   0  0  1  0  0  0  0  0  0  0  0  0
  -29.6242   91.4844   19.5656 C   0  0  0  0  0  0  0  0  0  0  0  0
  -28.7175   90.6410   19.8731 O   0  0  0  0  0  0  0  0  0  0  0  0
  -29.9923   92.5035   20.4431 O   0  0  0  0  0  0  0  0  0  0  0  0
  2  1  1  1
  2  3  2  0
  2  4  1  0
  2  5  1  0
  5  6  1  0
  6  7  1  0
  7  8  1  0
  8  9  1  0
  9 10  1  1
 10 11  2  0
 10 12  1  0
  9  5  1  0
M  END
>  <shape_align_shape_tanimoto>  (3) 
0.56920352185684087

>  <shape_align_color_tanimoto>  (3) 
0.21875757553936215

>  <metric>  (3) 
combo

>  <metric_score>  (3) 
0.394

>  <template_pid>  (3) 
3N2C

>  <template_shape_score>  (3) 
0.569

>  <template_color_score>  (3) 
0.219

>  <template_combo_score>  (3) 
0.394

$$$$
