2YXJ_shape_pose
     RDKit          3D

 56 61  0  0  0  0  0  0  0  0999 V2000
   -6.8008    5.6181   -9.0048 C   0  0  0  0  0  0  0  0  0  0  0  0
   -6.2028    4.6348   -9.8757 N   0  0  0  0  0  0  0  0  0  0  0  0
   -6.6400    3.3346   -9.4214 C   0  0  0  0  0  0  0  0  0  0  0  0
   -6.5458    4.8311  -11.2882 C   0  0  0  0  0  0  0  0  0  0  0  0
   -6.7790    6.2419  -11.6200 C   0  0  0  0  0  0  0  0  0  0  0  0
   -7.1412    6.6370  -13.0228 C   0  0  2  0  0  0  0  0  0  0  0  0
   -6.1283    6.2783  -14.0588 C   0  0  0  0  0  0  0  0  0  0  0  0
   -5.8848    4.4848  -14.2760 S   0  0  0  0  0  0  0  0  0  0  0  0
   -7.3252    3.7756  -15.0606 C   0  0  0  0  0  0  0  0  0  0  0  0
   -7.3568    3.7723  -16.4577 C   0  0  0  0  0  0  0  0  0  0  0  0
   -8.4611    3.2323  -17.1318 C   0  0  0  0  0  0  0  0  0  0  0  0
   -9.5299    2.6976  -16.4488 C   0  0  0  0  0  0  0  0  0  0  0  0
   -9.4967    2.7014  -15.0726 C   0  0  0  0  0  0  0  0  0  0  0  0
   -8.3939    3.2403  -14.4025 C   0  0  0  0  0  0  0  0  0  0  0  0
   -7.3727    8.0658  -13.0665 N   0  0  0  0  0  0  0  0  0  0  0  0
   -7.9986    8.7737  -14.1033 C   0  0  0  0  0  0  0  0  0  0  0  0
   -8.5475    8.1329  -15.2041 C   0  0  0  0  0  0  0  0  0  0  0  0
   -9.2120    8.8283  -16.2174 C   0  0  0  0  0  0  0  0  0  0  0  0
   -9.3573   10.1915  -16.1724 C   0  0  0  0  0  0  0  0  0  0  0  0
  -10.1384   11.1244  -17.4168 S   0  0  0  0  0  0  0  0  0  0  0  0
   -9.5579   10.9193  -18.7734 O   0  0  0  0  0  0  0  0  0  0  0  0
  -10.0934   12.5843  -17.0126 O   0  0  0  0  0  0  0  0  0  0  0  0
  -11.8315   10.7268  -17.4652 N   0  0  0  0  0  0  0  0  0  0  0  0
  -12.2047    9.7265  -18.3988 C   0  0  0  0  0  0  0  0  0  0  0  0
  -11.2417    9.2430  -19.0923 O   0  0  0  0  0  0  0  0  0  0  0  0
  -13.5348    9.2258  -18.6239 C   0  0  0  0  0  0  0  0  0  0  0  0
  -13.7045    8.3591  -19.7059 C   0  0  0  0  0  0  0  0  0  0  0  0
  -14.9192    7.8042  -20.0197 C   0  0  0  0  0  0  0  0  0  0  0  0
  -16.0454    8.0939  -19.2537 C   0  0  0  0  0  0  0  0  0  0  0  0
  -17.2786    7.4957  -19.6264 N   0  0  0  0  0  0  0  0  0  0  0  0
  -18.4786    7.5443  -18.8194 C   0  0  0  0  0  0  0  0  0  0  0  0
  -19.2864    6.3007  -18.7830 C   0  0  0  0  0  0  0  0  0  0  0  0
  -19.0699    5.4747  -19.9259 N   0  0  0  0  0  0  0  0  0  0  0  0
  -20.1465    4.5220  -20.1441 C   0  0  0  0  0  0  0  0  0  0  0  0
  -19.9320    3.8933  -21.4662 C   0  0  0  0  0  0  0  0  0  0  0  0
  -20.7603    4.2555  -22.5337 C   0  0  0  0  0  0  0  0  0  0  0  0
  -20.6170    3.7205  -23.7773 C   0  0  0  0  0  0  0  0  0  0  0  0
  -19.6258    2.7901  -24.0039 C   0  0  0  0  0  0  0  0  0  0  0  0
  -18.8008    2.4227  -22.9618 C   0  0  0  0  0  0  0  0  0  0  0  0
  -18.9422    2.9682  -21.6792 C   0  0  0  0  0  0  0  0  0  0  0  0
  -18.0215    2.4876  -20.6765 C   0  0  0  0  0  0  0  0  0  0  0  0
  -18.3529    1.9055  -19.4850 C   0  0  0  0  0  0  0  0  0  0  0  0
  -17.3788    1.4991  -18.5661 C   0  0  0  0  0  0  0  0  0  0  0  0
  -16.0442    1.6950  -18.8815 C   0  0  0  0  0  0  0  0  0  0  0  0
  -14.7538    1.2196  -17.7929 Cl  0  0  0  0  0  0  0  0  0  0  0  0
  -15.6792    2.2755  -20.0707 C   0  0  0  0  0  0  0  0  0  0  0  0
  -16.6616    2.6627  -20.9486 C   0  0  0  0  0  0  0  0  0  0  0  0
  -18.8177    6.3214  -21.0728 C   0  0  0  0  0  0  0  0  0  0  0  0
  -17.3721    6.7927  -20.8937 C   0  0  0  0  0  0  0  0  0  0  0  0
  -15.8896    8.9477  -18.1848 C   0  0  0  0  0  0  0  0  0  0  0  0
  -14.6429    9.5134  -17.8670 C   0  0  0  0  0  0  0  0  0  0  0  0
   -8.8134   10.8356  -15.0773 C   0  0  0  0  0  0  0  0  0  0  0  0
   -8.1467   10.1617  -14.0587 C   0  0  0  0  0  0  0  0  0  0  0  0
   -7.6446   10.9698  -13.0142 N   0  0  0  0  0  0  0  0  0  0  0  0
   -8.2505   12.0564  -12.7465 O   0  0  0  0  0  0  0  0  0  0  0  0
   -6.5536   10.7110  -12.2389 O   0  0  0  0  0  0  0  0  0  0  0  0
  1  2  1  0
  2  3  1  0
  2  4  1  0
  4  5  1  0
  6  5  1  1
  6  7  1  0
  7  8  1  0
  8  9  1  0
  9 10  2  0
 10 11  1  0
 11 12  2  0
 12 13  1  0
 13 14  2  0
  6 15  1  0
 15 16  1  0
 16 17  2  0
 17 18  1  0
 18 19  2  0
 19 20  1  0
 20 21  2  0
 20 22  2  0
 20 23  1  0
 23 24  1  0
 24 25  2  0
 24 26  1  0
 26 27  2  0
 27 28  1  0
 28 29  2  0
 29 30  1  0
 30 31  1  0
 31 32  1  0
 32 33  1  0
 33 34  1  0
 34 35  1  0
 35 36  2  0
 36 37  1  0
 37 38  2  0
 38 39  1  0
 39 40  2  0
 40 41  1  0
 41 42  2  0
 42 43  1  0
 43 44  2  0
 44 45  1  0
 44 46  1  0
 46 47  2  0
 33 48  1  0
 48 49  1  0
 29 50  1  0
 50 51  2  0
 19 52  1  0
 52 53  2  0
 53 54  1  0
 54 55  2  0
 54 56  1  0
 14  9  1  0
 53 16  1  0
 51 26  1  0
 49 30  1  0
 40 35  1  0
 47 41  1  0
M  CHG  4   2   1  33   1  54   1  56  -1
M  END
>  <shape_align_shape_tanimoto>  (1) 
0.44316416706580952

>  <shape_align_color_tanimoto>  (1) 
0.028389666094095961

>  <metric>  (1) 
shape

>  <metric_score>  (1) 
0.443

>  <template_pid>  (1) 
2YXJ

>  <template_shape_score>  (1) 
0.443

>  <template_color_score>  (1) 
0.028

>  <template_combo_score>  (1) 
0.236

$$$$
2YXJ_color_pose
     RDKit          3D

 56 61  0  0  0  0  0  0  0  0999 V2000
   -8.1642    5.9681   -9.9752 C   0  0  0  0  0  0  0  0  0  0  0  0
   -7.8470    5.3533  -11.2822 N   0  0  0  0  0  0  0  0  0  0  0  0
   -8.3390    3.9945  -11.1703 C   0  0  0  0  0  0  0  0  0  0  0  0
   -6.4373    5.3426  -11.5106 C   0  0  0  0  0  0  0  0  0  0  0  0
   -6.0224    5.9112  -12.8533 C   0  0  0  0  0  0  0  0  0  0  0  0
   -6.5712    5.1688  -14.0226 C   0  0  2  0  0  0  0  0  0  0  0  0
   -6.1396    3.7330  -14.0740 C   0  0  0  0  0  0  0  0  0  0  0  0
   -6.8832    3.0074  -15.5566 S   0  0  0  0  0  0  0  0  0  0  0  0
   -8.6534    2.9948  -15.3678 C   0  0  0  0  0  0  0  0  0  0  0  0
   -9.3399    4.1205  -15.8212 C   0  0  0  0  0  0  0  0  0  0  0  0
  -10.7220    4.1672  -15.7074 C   0  0  0  0  0  0  0  0  0  0  0  0
  -11.4455    3.1132  -15.1490 C   0  0  0  0  0  0  0  0  0  0  0  0
  -10.7378    2.0238  -14.7145 C   0  0  0  0  0  0  0  0  0  0  0  0
   -9.3579    1.9513  -14.8161 C   0  0  0  0  0  0  0  0  0  0  0  0
   -6.2336    5.8298  -15.2483 N   0  0  0  0  0  0  0  0  0  0  0  0
   -6.8587    7.0388  -15.6973 C   0  0  0  0  0  0  0  0  0  0  0  0
   -7.8935    7.5719  -14.9595 C   0  0  0  0  0  0  0  0  0  0  0  0
   -8.5795    8.7251  -15.3697 C   0  0  0  0  0  0  0  0  0  0  0  0
   -8.2117    9.3353  -16.5321 C   0  0  0  0  0  0  0  0  0  0  0  0
   -9.0610   10.7879  -17.0901 S   0  0  0  0  0  0  0  0  0  0  0  0
   -8.1455   11.5689  -17.9845 O   0  0  0  0  0  0  0  0  0  0  0  0
   -9.5127   11.6249  -15.9429 O   0  0  0  0  0  0  0  0  0  0  0  0
  -10.4100   10.2501  -18.0389 N   0  0  0  0  0  0  0  0  0  0  0  0
  -11.6310   10.0390  -17.3351 C   0  0  0  0  0  0  0  0  0  0  0  0
  -11.5848   10.2779  -16.0829 O   0  0  0  0  0  0  0  0  0  0  0  0
  -12.8542    9.5829  -17.9802 C   0  0  0  0  0  0  0  0  0  0  0  0
  -12.9506    9.2630  -19.3068 C   0  0  0  0  0  0  0  0  0  0  0  0
  -14.1391    8.8315  -19.8636 C   0  0  0  0  0  0  0  0  0  0  0  0
  -15.3046    8.6987  -19.1019 C   0  0  0  0  0  0  0  0  0  0  0  0
  -16.5110    8.2297  -19.6820 N   0  0  0  0  0  0  0  0  0  0  0  0
  -17.8299    8.5193  -19.1542 C   0  0  0  0  0  0  0  0  0  0  0  0
  -18.5415    7.2244  -18.9383 C   0  0  0  0  0  0  0  0  0  0  0  0
  -18.5741    6.3850  -20.1172 N   0  0  0  0  0  0  0  0  0  0  0  0
  -19.4257    5.2593  -19.8490 C   0  0  0  0  0  0  0  0  0  0  0  0
  -19.6571    4.3217  -20.9371 C   0  0  0  0  0  0  0  0  0  0  0  0
  -20.8267    4.5111  -21.6921 C   0  0  0  0  0  0  0  0  0  0  0  0
  -21.1391    3.7191  -22.7707 C   0  0  0  0  0  0  0  0  0  0  0  0
  -20.3143    2.6879  -23.1725 C   0  0  0  0  0  0  0  0  0  0  0  0
  -19.1663    2.4896  -22.4432 C   0  0  0  0  0  0  0  0  0  0  0  0
  -18.8416    3.2971  -21.3370 C   0  0  0  0  0  0  0  0  0  0  0  0
  -17.6247    2.9184  -20.6426 C   0  0  0  0  0  0  0  0  0  0  0  0
  -16.4092    2.8996  -21.3446 C   0  0  0  0  0  0  0  0  0  0  0  0
  -15.2330    2.5330  -20.7602 C   0  0  0  0  0  0  0  0  0  0  0  0
  -15.1719    2.1578  -19.4382 C   0  0  0  0  0  0  0  0  0  0  0  0
  -13.6780    1.6952  -18.6991 Cl  0  0  0  0  0  0  0  0  0  0  0  0
  -16.3647    2.1697  -18.7279 C   0  0  0  0  0  0  0  0  0  0  0  0
  -17.5530    2.5422  -19.3274 C   0  0  0  0  0  0  0  0  0  0  0  0
  -17.3143    6.1401  -20.6941 C   0  0  0  0  0  0  0  0  0  0  0  0
  -16.4647    7.3854  -20.8698 C   0  0  0  0  0  0  0  0  0  0  0  0
  -15.1752    9.0297  -17.7667 C   0  0  0  0  0  0  0  0  0  0  0  0
  -13.9874    9.4614  -17.2096 C   0  0  0  0  0  0  0  0  0  0  0  0
   -7.1774    8.8027  -17.2695 C   0  0  0  0  0  0  0  0  0  0  0  0
   -6.4895    7.6550  -16.8668 C   0  0  0  0  0  0  0  0  0  0  0  0
   -5.4526    7.2203  -17.7216 N   0  0  0  0  0  0  0  0  0  0  0  0
   -5.5434    7.4725  -18.9536 O   0  0  0  0  0  0  0  0  0  0  0  0
   -4.3354    6.5331  -17.3400 O   0  0  0  0  0  0  0  0  0  0  0  0
  1  2  1  0
  2  3  1  0
  2  4  1  0
  4  5  1  0
  6  5  1  1
  6  7  1  0
  7  8  1  0
  8  9  1  0
  9 10  2  0
 10 11  1  0
 11 12  2  0
 12 13  1  0
 13 14  2  0
  6 15  1  0
 15 16  1  0
 16 17  2  0
 17 18  1  0
 18 19  2  0
 19 20  1  0
 20 21  2  0
 20 22  2  0
 20 23  1  0
 23 24  1  0
 24 25  2  0
 24 26  1  0
 26 27  2  0
 27 28  1  0
 28 29  2  0
 29 30  1  0
 30 31  1  0
 31 32  1  0
 32 33  1  0
 33 34  1  0
 34 35  1  0
 35 36  2  0
 36 37  1  0
 37 38  2  0
 38 39  1  0
 39 40  2  0
 40 41  1  0
 41 42  2  0
 42 43  1  0
 43 44  2  0
 44 45  1  0
 44 46  1  0
 46 47  2  0
 33 48  1  0
 48 49  1  0
 29 50  1  0
 50 51  2  0
 19 52  1  0
 52 53  2  0
 53 54  1  0
 54 55  2  0
 54 56  1  0
 14  9  1  0
 53 16  1  0
 51 26  1  0
 49 30  1  0
 40 35  1  0
 47 41  1  0
M  CHG  4   2   1  33   1  54   1  56  -1
M  END
>  <shape_align_shape_tanimoto>  (2) 
0.40563973573736228

>  <shape_align_color_tanimoto>  (2) 
0.070120831852709536

>  <metric>  (2) 
color

>  <metric_score>  (2) 
0.070

>  <template_pid>  (2) 
2YXJ

>  <template_shape_score>  (2) 
0.406

>  <template_color_score>  (2) 
0.070

>  <template_combo_score>  (2) 
0.238

$$$$
2YXJ_combo_pose
     RDKit          3D

 56 61  0  0  0  0  0  0  0  0999 V2000
   -8.1642    5.9681   -9.9752 C   0  0  0  0  0  0  0  0  0  0  0  0
   -7.8470    5.3533  -11.2822 N   0  0  0  0  0  0  0  0  0  0  0  0
   -8.3390    3.9945  -11.1703 C   0  0  0  0  0  0  0  0  0  0  0  0
   -6.4373    5.3426  -11.5106 C   0  0  0  0  0  0  0  0  0  0  0  0
   -6.0224    5.9112  -12.8533 C   0  0  0  0  0  0  0  0  0  0  0  0
   -6.5712    5.1688  -14.0226 C   0  0  2  0  0  0  0  0  0  0  0  0
   -6.1396    3.7330  -14.0740 C   0  0  0  0  0  0  0  0  0  0  0  0
   -6.8832    3.0074  -15.5566 S   0  0  0  0  0  0  0  0  0  0  0  0
   -8.6534    2.9948  -15.3678 C   0  0  0  0  0  0  0  0  0  0  0  0
   -9.3399    4.1205  -15.8212 C   0  0  0  0  0  0  0  0  0  0  0  0
  -10.7220    4.1672  -15.7074 C   0  0  0  0  0  0  0  0  0  0  0  0
  -11.4455    3.1132  -15.1490 C   0  0  0  0  0  0  0  0  0  0  0  0
  -10.7378    2.0238  -14.7145 C   0  0  0  0  0  0  0  0  0  0  0  0
   -9.3579    1.9513  -14.8161 C   0  0  0  0  0  0  0  0  0  0  0  0
   -6.2336    5.8298  -15.2483 N   0  0  0  0  0  0  0  0  0  0  0  0
   -6.8587    7.0388  -15.6973 C   0  0  0  0  0  0  0  0  0  0  0  0
   -7.8935    7.5719  -14.9595 C   0  0  0  0  0  0  0  0  0  0  0  0
   -8.5795    8.7251  -15.3697 C   0  0  0  0  0  0  0  0  0  0  0  0
   -8.2117    9.3353  -16.5321 C   0  0  0  0  0  0  0  0  0  0  0  0
   -9.0610   10.7879  -17.0901 S   0  0  0  0  0  0  0  0  0  0  0  0
   -8.1455   11.5689  -17.9845 O   0  0  0  0  0  0  0  0  0  0  0  0
   -9.5127   11.6249  -15.9429 O   0  0  0  0  0  0  0  0  0  0  0  0
  -10.4100   10.2501  -18.0389 N   0  0  0  0  0  0  0  0  0  0  0  0
  -11.6310   10.0390  -17.3351 C   0  0  0  0  0  0  0  0  0  0  0  0
  -11.5848   10.2779  -16.0829 O   0  0  0  0  0  0  0  0  0  0  0  0
  -12.8542    9.5829  -17.9802 C   0  0  0  0  0  0  0  0  0  0  0  0
  -12.9506    9.2630  -19.3068 C   0  0  0  0  0  0  0  0  0  0  0  0
  -14.1391    8.8315  -19.8636 C   0  0  0  0  0  0  0  0  0  0  0  0
  -15.3046    8.6987  -19.1019 C   0  0  0  0  0  0  0  0  0  0  0  0
  -16.5110    8.2297  -19.6820 N   0  0  0  0  0  0  0  0  0  0  0  0
  -17.8299    8.5193  -19.1542 C   0  0  0  0  0  0  0  0  0  0  0  0
  -18.5415    7.2244  -18.9383 C   0  0  0  0  0  0  0  0  0  0  0  0
  -18.5741    6.3850  -20.1172 N   0  0  0  0  0  0  0  0  0  0  0  0
  -19.4257    5.2593  -19.8490 C   0  0  0  0  0  0  0  0  0  0  0  0
  -19.6571    4.3217  -20.9371 C   0  0  0  0  0  0  0  0  0  0  0  0
  -20.8267    4.5111  -21.6921 C   0  0  0  0  0  0  0  0  0  0  0  0
  -21.1391    3.7191  -22.7707 C   0  0  0  0  0  0  0  0  0  0  0  0
  -20.3143    2.6879  -23.1725 C   0  0  0  0  0  0  0  0  0  0  0  0
  -19.1663    2.4896  -22.4432 C   0  0  0  0  0  0  0  0  0  0  0  0
  -18.8416    3.2971  -21.3370 C   0  0  0  0  0  0  0  0  0  0  0  0
  -17.6247    2.9184  -20.6426 C   0  0  0  0  0  0  0  0  0  0  0  0
  -16.4092    2.8996  -21.3446 C   0  0  0  0  0  0  0  0  0  0  0  0
  -15.2330    2.5330  -20.7602 C   0  0  0  0  0  0  0  0  0  0  0  0
  -15.1719    2.1578  -19.4382 C   0  0  0  0  0  0  0  0  0  0  0  0
  -13.6780    1.6952  -18.6991 Cl  0  0  0  0  0  0  0  0  0  0  0  0
  -16.3647    2.1697  -18.7279 C   0  0  0  0  0  0  0  0  0  0  0  0
  -17.5530    2.5422  -19.3274 C   0  0  0  0  0  0  0  0  0  0  0  0
  -17.3143    6.1401  -20.6941 C   0  0  0  0  0  0  0  0  0  0  0  0
  -16.4647    7.3854  -20.8698 C   0  0  0  0  0  0  0  0  0  0  0  0
  -15.1752    9.0297  -17.7667 C   0  0  0  0  0  0  0  0  0  0  0  0
  -13.9874    9.4614  -17.2096 C   0  0  0  0  0  0  0  0  0  0  0  0
   -7.1774    8.8027  -17.2695 C   0  0  0  0  0  0  0  0  0  0  0  0
   -6.4895    7.6550  -16.8668 C   0  0  0  0  0  0  0  0  0  0  0  0
   -5.4526    7.2203  -17.7216 N   0  0  0  0  0  0  0  0  0  0  0  0
   -5.5434    7.4725  -18.9536 O   0  0  0  0  0  0  0  0  0  0  0  0
   -4.3354    6.5331  -17.3400 O   0  0  0  0  0  0  0  0  0  0  0  0
  1  2  1  0
  2  3  1  0
  2  4  1  0
  4  5  1  0
  6  5  1  1
  6  7  1  0
  7  8  1  0
  8  9  1  0
  9 10  2  0
 10 11  1  0
 11 12  2  0
 12 13  1  0
 13 14  2  0
  6 15  1  0
 15 16  1  0
 16 17  2  0
 17 18  1  0
 18 19  2  0
 19 20  1  0
 20 21  2  0
 20 22  2  0
 20 23  1  0
 23 24  1  0
 24 25  2  0
 24 26  1  0
 26 27  2  0
 27 28  1  0
 28 29  2  0
 29 30  1  0
 30 31  1  0
 31 32  1  0
 32 33  1  0
 33 34  1  0
 34 35  1  0
 35 36  2  0
 36 37  1  0
 37 38  2  0
 38 39  1  0
 39 40  2  0
 40 41  1  0
 41 42  2  0
 42 43  1  0
 43 44  2  0
 44 45  1  0
 44 46  1  0
 46 47  2  0
 33 48  1  0
 48 49  1  0
 29 50  1  0
 50 51  2  0
 19 52  1  0
 52 53  2  0
 53 54  1  0
 54 55  2  0
 54 56  1  0
 14  9  1  0
 53 16  1  0
 51 26  1  0
 49 30  1  0
 40 35  1  0
 47 41  1  0
M  CHG  4   2   1  33   1  54   1  56  -1
M  END
>  <shape_align_shape_tanimoto>  (3) 
0.40563973573736228

>  <shape_align_color_tanimoto>  (3) 
0.070120831852709536

>  <metric>  (3) 
combo

>  <metric_score>  (3) 
0.238

>  <template_pid>  (3) 
2YXJ

>  <template_shape_score>  (3) 
0.406

>  <template_color_score>  (3) 
0.070

>  <template_combo_score>  (3) 
0.238

$$$$
