5J5D_shape_pose
     RDKit          3D

 11 10  0  0  0  0  0  0  0  0999 V2000
   33.9922   51.9395   11.5570 O   0  0  0  0  0  0  0  0  0  0  0  0
   35.1770   51.6487   11.1757 C   0  0  0  0  0  0  0  0  0  0  0  0
   35.8778   50.7215   11.9664 O   0  0  0  0  0  0  0  0  0  0  0  0
   35.8195   52.2163    9.9899 C   0  0  0  0  0  0  0  0  0  0  0  0
   36.4774   51.2895    9.0461 C   0  0  0  0  0  0  0  0  0  0  0  0
   35.6272   50.2502    8.3815 C   0  0  0  0  0  0  0  0  0  0  0  0
   34.9695   49.2797    9.3069 C   0  0  0  0  0  0  0  0  0  0  0  0
   34.1480   48.2215    8.5792 C   0  0  0  0  0  0  0  0  0  0  0  0
   34.9538   47.3801    7.6959 C   0  0  0  0  0  0  0  0  0  0  0  0
   36.2099   47.5264    7.6732 O   0  0  0  0  0  0  0  0  0  0  0  0
   34.4332   46.4097    6.8579 O   0  0  0  0  0  0  0  0  0  0  0  0
  1  2  2  0
  2  3  1  0
  2  4  1  0
  4  5  1  0
  5  6  1  0
  6  7  1  0
  7  8  1  0
  8  9  1  0
  9 10  2  0
  9 11  1  0
M  CHG  2   3  -1  11  -1
M  END
>  <shape_align_shape_tanimoto>  (1) 
0.75827404619919125

>  <shape_align_color_tanimoto>  (1) 
0.073125754063890644

>  <metric>  (1) 
shape

>  <metric_score>  (1) 
0.758

>  <template_pid>  (1) 
5J5D

>  <template_shape_score>  (1) 
0.758

>  <template_color_score>  (1) 
0.073

>  <template_combo_score>  (1) 
0.416

$$$$
5J5D_color_pose
     RDKit          3D

 11 10  0  0  0  0  0  0  0  0999 V2000
   34.1829   46.3330    8.2980 O   0  0  0  0  0  0  0  0  0  0  0  0
   34.7038   47.1640    7.4654 C   0  0  0  0  0  0  0  0  0  0  0  0
   34.0592   47.4931    6.2685 O   0  0  0  0  0  0  0  0  0  0  0  0
   36.0163   47.7980    7.7670 C   0  0  0  0  0  0  0  0  0  0  0  0
   35.9033   48.4655    9.1356 C   0  0  0  0  0  0  0  0  0  0  0  0
   34.7978   49.5033    8.9982 C   0  0  0  0  0  0  0  0  0  0  0  0
   34.5727   50.2632   10.2619 C   0  0  0  0  0  0  0  0  0  0  0  0
   35.7658   51.0129   10.7470 C   0  0  0  0  0  0  0  0  0  0  0  0
   36.3010   52.0201    9.8206 C   0  0  0  0  0  0  0  0  0  0  0  0
   35.8059   52.2574    8.6750 O   0  0  0  0  0  0  0  0  0  0  0  0
   37.4088   52.7478   10.2358 O   0  0  0  0  0  0  0  0  0  0  0  0
  1  2  2  0
  2  3  1  0
  2  4  1  0
  4  5  1  0
  5  6  1  0
  6  7  1  0
  7  8  1  0
  8  9  1  0
  9 10  2  0
  9 11  1  0
M  CHG  2   3  -1  11  -1
M  END
>  <shape_align_shape_tanimoto>  (2) 
0.70518487301633093

>  <shape_align_color_tanimoto>  (2) 
0.14203459396105009

>  <metric>  (2) 
color

>  <metric_score>  (2) 
0.142

>  <template_pid>  (2) 
5J5D

>  <template_shape_score>  (2) 
0.705

>  <template_color_score>  (2) 
0.142

>  <template_combo_score>  (2) 
0.424

$$$$
5J5D_combo_pose
     RDKit          3D

 11 10  0  0  0  0  0  0  0  0999 V2000
   33.7969   48.5249    8.9280 O   0  0  0  0  0  0  0  0  0  0  0  0
   34.6349   47.9036    8.2339 C   0  0  0  0  0  0  0  0  0  0  0  0
   34.1488   46.8121    7.5105 O   0  0  0  0  0  0  0  0  0  0  0  0
   36.0573   48.2185    8.1176 C   0  0  0  0  0  0  0  0  0  0  0  0
   36.5100   49.4179    8.9078 C   0  0  0  0  0  0  0  0  0  0  0  0
   35.8086   50.6839    8.4907 C   0  0  0  0  0  0  0  0  0  0  0  0
   36.3117   51.8342    9.2954 C   0  0  0  0  0  0  0  0  0  0  0  0
   36.0880   51.6581   10.7624 C   0  0  0  0  0  0  0  0  0  0  0  0
   34.6683   51.5230   11.1469 C   0  0  0  0  0  0  0  0  0  0  0  0
   33.6929   51.5739   10.3718 O   0  0  0  0  0  0  0  0  0  0  0  0
   34.4046   51.3197   12.5077 O   0  0  0  0  0  0  0  0  0  0  0  0
  1  2  2  0
  2  3  1  0
  2  4  1  0
  4  5  1  0
  5  6  1  0
  6  7  1  0
  7  8  1  0
  8  9  1  0
  9 10  2  0
  9 11  1  0
M  CHG  2   3  -1  11  -1
M  END
>  <shape_align_shape_tanimoto>  (3) 
0.75544066118053999

>  <shape_align_color_tanimoto>  (3) 
0.11091552424903264

>  <metric>  (3) 
combo

>  <metric_score>  (3) 
0.433

>  <template_pid>  (3) 
5J5D

>  <template_shape_score>  (3) 
0.755

>  <template_color_score>  (3) 
0.111

>  <template_combo_score>  (3) 
0.433

$$$$
