6BIK_shape_pose
     RDKit          3D

 44 48  0  0  0  0  0  0  0  0999 V2000
   19.1549    7.8874  -32.7976 C   0  0  0  0  0  0  0  0  0  0  0  0
   18.0829    6.8987  -32.9871 N   0  0  0  0  0  0  0  0  0  0  0  0
   16.9490    7.2664  -33.5419 N   0  0  0  0  0  0  0  0  0  0  0  0
   15.9071    6.3813  -33.7488 C   0  0  0  0  0  0  0  0  0  0  0  0
   14.7502    6.9097  -34.4156 C   0  0  0  0  0  0  0  0  0  0  0  0
   14.9717    7.9915  -35.2765 C   0  0  0  0  0  0  0  0  0  0  0  0
   13.9718    8.6742  -35.9116 C   0  0  0  0  0  0  0  0  0  0  0  0
   12.6636    8.2959  -35.7116 C   0  0  0  0  0  0  0  0  0  0  0  0
   12.3841    7.2412  -34.8772 C   0  0  0  0  0  0  0  0  0  0  0  0
   11.0467    6.8345  -34.6383 N   0  0  0  0  0  0  0  0  0  0  0  0
    9.8830    7.5520  -34.9795 C   0  0  0  0  0  0  0  0  0  0  0  0
    9.9289    8.6547  -35.5440 O   0  0  0  0  0  0  0  0  0  0  0  0
    8.5229    7.0390  -34.6857 C   0  0  0  0  0  0  0  0  0  0  0  0
    8.3013    5.8902  -33.9679 C   0  0  0  0  0  0  0  0  0  0  0  0
    7.0049    5.4340  -33.7099 C   0  0  0  0  0  0  0  0  0  0  0  0
    5.9074    6.1236  -34.1694 C   0  0  0  0  0  0  0  0  0  0  0  0
    4.5081    5.7086  -33.9287 C   0  0  0  0  0  0  0  0  0  0  0  0
    3.9931    6.3590  -32.6531 C   0  0  0  0  0  0  0  0  0  0  0  0
    3.5791    6.0924  -35.0471 C   0  0  0  0  0  0  0  0  0  0  0  0
    4.3650    4.2077  -33.7050 C   0  0  0  0  0  0  0  0  0  0  0  0
    6.1137    7.2824  -34.8949 C   0  0  0  0  0  0  0  0  0  0  0  0
    7.3992    7.7156  -35.1380 C   0  0  0  0  0  0  0  0  0  0  0  0
   13.4397    6.5550  -34.2325 C   0  0  0  0  0  0  0  0  0  0  0  0
   13.0199    5.4619  -33.3388 C   0  0  0  0  0  0  0  0  0  0  0  0
   13.0565    4.2652  -34.0240 O   0  0  0  0  0  0  0  0  0  0  0  0
   16.1574    5.1134  -33.3344 C   0  0  0  0  0  0  0  0  0  0  0  0
   17.3673    4.7161  -32.7397 C   0  0  0  0  0  0  0  0  0  0  0  0
   17.5295    3.5168  -32.3699 N   0  0  0  0  0  0  0  0  0  0  0  0
   16.6116    2.4522  -32.4746 C   0  0  0  0  0  0  0  0  0  0  0  0
   17.1469    1.2189  -32.8809 C   0  0  0  0  0  0  0  0  0  0  0  0
   16.3774    0.0950  -33.0184 C   0  0  0  0  0  0  0  0  0  0  0  0
   15.0166    0.1737  -32.7481 C   0  0  0  0  0  0  0  0  0  0  0  0
   14.2455   -1.0356  -32.9103 C   0  0  0  0  0  0  0  0  0  0  0  0
   14.3101   -1.5894  -34.0630 O   0  0  0  0  0  0  0  0  0  0  0  0
   13.4440   -1.6237  -31.8981 N   0  0  0  0  0  0  0  0  0  0  0  0
   13.2829   -1.1037  -30.5666 C   0  0  0  0  0  0  0  0  0  0  0  0
   11.8394   -1.0966  -30.1198 C   0  0  0  0  0  0  0  0  0  0  0  0
   11.0112   -1.7622  -31.0206 O   0  0  0  0  0  0  0  0  0  0  0  0
   11.5524   -3.0312  -31.2251 C   0  0  0  0  0  0  0  0  0  0  0  0
   12.7123   -2.8615  -32.2013 C   0  0  0  0  0  0  0  0  0  0  0  0
   14.5039    1.3893  -32.3506 C   0  0  0  0  0  0  0  0  0  0  0  0
   15.3104    2.4745  -32.2287 N   0  0  0  0  0  0  0  0  0  0  0  0
   18.3562    5.6547  -32.5662 C   0  0  0  0  0  0  0  0  0  0  0  0
   19.4254    5.2976  -32.0381 O   0  0  0  0  0  0  0  0  0  0  0  0
  1  2  1  0
  2  3  1  0
  3  4  1  0
  4  5  1  0
  5  6  2  0
  6  7  1  0
  7  8  2  0
  8  9  1  0
  9 10  1  0
 10 11  1  0
 11 12  2  0
 11 13  1  0
 13 14  2  0
 14 15  1  0
 15 16  2  0
 16 17  1  0
 17 18  1  0
 17 19  1  0
 17 20  1  0
 16 21  1  0
 21 22  2  0
  9 23  2  0
 23 24  1  0
 24 25  1  0
  4 26  2  0
 26 27  1  0
 27 28  2  0
 28 29  1  0
 29 30  2  0
 30 31  1  0
 31 32  2  0
 32 33  1  0
 33 34  2  0
 33 35  1  0
 35 36  1  0
 36 37  1  0
 37 38  1  0
 38 39  1  0
 39 40  1  0
 32 41  1  0
 41 42  2  0
 27 43  1  0
 43 44  2  0
 43  2  1  0
 23  5  1  0
 42 29  1  0
 22 13  1  0
 40 35  1  0
M  END
>  <shape_align_shape_tanimoto>  (1) 
0.42189508319973135

>  <shape_align_color_tanimoto>  (1) 
0.030571904207463581

>  <metric>  (1) 
shape

>  <metric_score>  (1) 
0.422

>  <template_pid>  (1) 
6BIK

>  <template_shape_score>  (1) 
0.422

>  <template_color_score>  (1) 
0.031

>  <template_combo_score>  (1) 
0.226

$$$$
6BIK_color_pose
     RDKit          3D

 44 48  0  0  0  0  0  0  0  0999 V2000
   20.4682    5.3715  -32.6297 C   0  0  0  0  0  0  0  0  0  0  0  0
   19.0174    5.1423  -32.6735 N   0  0  0  0  0  0  0  0  0  0  0  0
   18.2468    6.0432  -33.2570 N   0  0  0  0  0  0  0  0  0  0  0  0
   16.9016    5.8987  -33.3420 C   0  0  0  0  0  0  0  0  0  0  0  0
   16.1246    6.9947  -33.8727 C   0  0  0  0  0  0  0  0  0  0  0  0
   16.6620    8.2736  -33.6340 C   0  0  0  0  0  0  0  0  0  0  0  0
   16.0583    9.4378  -34.0399 C   0  0  0  0  0  0  0  0  0  0  0  0
   14.8624    9.3254  -34.7123 C   0  0  0  0  0  0  0  0  0  0  0  0
   14.3188    8.1007  -34.9594 C   0  0  0  0  0  0  0  0  0  0  0  0
   12.9963    7.9468  -35.5415 N   0  0  0  0  0  0  0  0  0  0  0  0
   12.0141    7.6110  -34.5375 C   0  0  0  0  0  0  0  0  0  0  0  0
   12.4985    7.5256  -33.3566 O   0  0  0  0  0  0  0  0  0  0  0  0
   10.6291    7.3734  -34.7793 C   0  0  0  0  0  0  0  0  0  0  0  0
    9.8491    7.7958  -35.8091 C   0  0  0  0  0  0  0  0  0  0  0  0
    8.5308    7.4257  -35.9303 C   0  0  0  0  0  0  0  0  0  0  0  0
    7.8927    6.5861  -35.0062 C   0  0  0  0  0  0  0  0  0  0  0  0
    6.4831    6.1923  -35.1216 C   0  0  0  0  0  0  0  0  0  0  0  0
    6.1390    4.8372  -34.5979 C   0  0  0  0  0  0  0  0  0  0  0  0
    5.5870    7.1832  -34.3473 C   0  0  0  0  0  0  0  0  0  0  0  0
    6.0191    6.2891  -36.5486 C   0  0  0  0  0  0  0  0  0  0  0  0
    8.6937    6.1571  -33.9531 C   0  0  0  0  0  0  0  0  0  0  0  0
    9.9877    6.5269  -33.8411 C   0  0  0  0  0  0  0  0  0  0  0  0
   14.9407    6.9003  -34.5496 C   0  0  0  0  0  0  0  0  0  0  0  0
   14.3293    5.6599  -34.9983 C   0  0  0  0  0  0  0  0  0  0  0  0
   15.1013    5.2631  -36.1489 O   0  0  0  0  0  0  0  0  0  0  0  0
   16.4015    4.7500  -32.7781 C   0  0  0  0  0  0  0  0  0  0  0  0
   17.1942    3.7838  -32.1570 C   0  0  0  0  0  0  0  0  0  0  0  0
   16.6504    2.7240  -31.6488 N   0  0  0  0  0  0  0  0  0  0  0  0
   15.2598    2.4607  -31.6804 C   0  0  0  0  0  0  0  0  0  0  0  0
   14.8129    1.2582  -32.2577 C   0  0  0  0  0  0  0  0  0  0  0  0
   13.4395    0.9825  -32.3283 C   0  0  0  0  0  0  0  0  0  0  0  0
   12.5025    1.8620  -31.8427 C   0  0  0  0  0  0  0  0  0  0  0  0
   11.0682    1.6678  -31.8998 C   0  0  0  0  0  0  0  0  0  0  0  0
   10.4259    1.8746  -30.8095 O   0  0  0  0  0  0  0  0  0  0  0  0
   10.3750    1.2681  -33.0982 N   0  0  0  0  0  0  0  0  0  0  0  0
   11.0932    1.0083  -34.3449 C   0  0  0  0  0  0  0  0  0  0  0  0
   10.1310    1.2065  -35.5115 C   0  0  0  0  0  0  0  0  0  0  0  0
    9.1661    2.1369  -35.1318 O   0  0  0  0  0  0  0  0  0  0  0  0
    8.2600    1.4403  -34.3296 C   0  0  0  0  0  0  0  0  0  0  0  0
    8.9192    1.1548  -33.0134 C   0  0  0  0  0  0  0  0  0  0  0  0
   12.9796    3.0285  -31.2809 C   0  0  0  0  0  0  0  0  0  0  0  0
   14.3064    3.2846  -31.2202 N   0  0  0  0  0  0  0  0  0  0  0  0
   18.5655    4.0123  -32.1150 C   0  0  0  0  0  0  0  0  0  0  0  0
   19.2983    3.1524  -31.5628 O   0  0  0  0  0  0  0  0  0  0  0  0
  1  2  1  0
  2  3  1  0
  3  4  1  0
  4  5  1  0
  5  6  2  0
  6  7  1  0
  7  8  2  0
  8  9  1  0
  9 10  1  0
 10 11  1  0
 11 12  2  0
 11 13  1  0
 13 14  2  0
 14 15  1  0
 15 16  2  0
 16 17  1  0
 17 18  1  0
 17 19  1  0
 17 20  1  0
 16 21  1  0
 21 22  2  0
  9 23  2  0
 23 24  1  0
 24 25  1  0
  4 26  2  0
 26 27  1  0
 27 28  2  0
 28 29  1  0
 29 30  2  0
 30 31  1  0
 31 32  2  0
 32 33  1  0
 33 34  2  0
 33 35  1  0
 35 36  1  0
 36 37  1  0
 37 38  1  0
 38 39  1  0
 39 40  1  0
 32 41  1  0
 41 42  2  0
 27 43  1  0
 43 44  2  0
 43  2  1  0
 23  5  1  0
 42 29  1  0
 22 13  1  0
 40 35  1  0
M  END
>  <shape_align_shape_tanimoto>  (2) 
0.41063125776377196

>  <shape_align_color_tanimoto>  (2) 
0.059609803470460597

>  <metric>  (2) 
color

>  <metric_score>  (2) 
0.060

>  <template_pid>  (2) 
6BIK

>  <template_shape_score>  (2) 
0.411

>  <template_color_score>  (2) 
0.060

>  <template_combo_score>  (2) 
0.235

$$$$
6BIK_combo_pose
     RDKit          3D

 44 48  0  0  0  0  0  0  0  0999 V2000
   20.4682    5.3715  -32.6297 C   0  0  0  0  0  0  0  0  0  0  0  0
   19.0174    5.1423  -32.6735 N   0  0  0  0  0  0  0  0  0  0  0  0
   18.2468    6.0432  -33.2570 N   0  0  0  0  0  0  0  0  0  0  0  0
   16.9016    5.8987  -33.3420 C   0  0  0  0  0  0  0  0  0  0  0  0
   16.1246    6.9947  -33.8727 C   0  0  0  0  0  0  0  0  0  0  0  0
   16.6620    8.2736  -33.6340 C   0  0  0  0  0  0  0  0  0  0  0  0
   16.0583    9.4378  -34.0399 C   0  0  0  0  0  0  0  0  0  0  0  0
   14.8624    9.3254  -34.7123 C   0  0  0  0  0  0  0  0  0  0  0  0
   14.3188    8.1007  -34.9594 C   0  0  0  0  0  0  0  0  0  0  0  0
   12.9963    7.9468  -35.5415 N   0  0  0  0  0  0  0  0  0  0  0  0
   12.0141    7.6110  -34.5375 C   0  0  0  0  0  0  0  0  0  0  0  0
   12.4985    7.5256  -33.3566 O   0  0  0  0  0  0  0  0  0  0  0  0
   10.6291    7.3734  -34.7793 C   0  0  0  0  0  0  0  0  0  0  0  0
    9.8491    7.7958  -35.8091 C   0  0  0  0  0  0  0  0  0  0  0  0
    8.5308    7.4257  -35.9303 C   0  0  0  0  0  0  0  0  0  0  0  0
    7.8927    6.5861  -35.0062 C   0  0  0  0  0  0  0  0  0  0  0  0
    6.4831    6.1923  -35.1216 C   0  0  0  0  0  0  0  0  0  0  0  0
    6.1390    4.8372  -34.5979 C   0  0  0  0  0  0  0  0  0  0  0  0
    5.5870    7.1832  -34.3473 C   0  0  0  0  0  0  0  0  0  0  0  0
    6.0191    6.2891  -36.5486 C   0  0  0  0  0  0  0  0  0  0  0  0
    8.6937    6.1571  -33.9531 C   0  0  0  0  0  0  0  0  0  0  0  0
    9.9877    6.5269  -33.8411 C   0  0  0  0  0  0  0  0  0  0  0  0
   14.9407    6.9003  -34.5496 C   0  0  0  0  0  0  0  0  0  0  0  0
   14.3293    5.6599  -34.9983 C   0  0  0  0  0  0  0  0  0  0  0  0
   15.1013    5.2631  -36.1489 O   0  0  0  0  0  0  0  0  0  0  0  0
   16.4015    4.7500  -32.7781 C   0  0  0  0  0  0  0  0  0  0  0  0
   17.1942    3.7838  -32.1570 C   0  0  0  0  0  0  0  0  0  0  0  0
   16.6504    2.7240  -31.6488 N   0  0  0  0  0  0  0  0  0  0  0  0
   15.2598    2.4607  -31.6804 C   0  0  0  0  0  0  0  0  0  0  0  0
   14.8129    1.2582  -32.2577 C   0  0  0  0  0  0  0  0  0  0  0  0
   13.4395    0.9825  -32.3283 C   0  0  0  0  0  0  0  0  0  0  0  0
   12.5025    1.8620  -31.8427 C   0  0  0  0  0  0  0  0  0  0  0  0
   11.0682    1.6678  -31.8998 C   0  0  0  0  0  0  0  0  0  0  0  0
   10.4259    1.8746  -30.8095 O   0  0  0  0  0  0  0  0  0  0  0  0
   10.3750    1.2681  -33.0982 N   0  0  0  0  0  0  0  0  0  0  0  0
   11.0932    1.0083  -34.3449 C   0  0  0  0  0  0  0  0  0  0  0  0
   10.1310    1.2065  -35.5115 C   0  0  0  0  0  0  0  0  0  0  0  0
    9.1661    2.1369  -35.1318 O   0  0  0  0  0  0  0  0  0  0  0  0
    8.2600    1.4403  -34.3296 C   0  0  0  0  0  0  0  0  0  0  0  0
    8.9192    1.1548  -33.0134 C   0  0  0  0  0  0  0  0  0  0  0  0
   12.9796    3.0285  -31.2809 C   0  0  0  0  0  0  0  0  0  0  0  0
   14.3064    3.2846  -31.2202 N   0  0  0  0  0  0  0  0  0  0  0  0
   18.5655    4.0123  -32.1150 C   0  0  0  0  0  0  0  0  0  0  0  0
   19.2983    3.1524  -31.5628 O   0  0  0  0  0  0  0  0  0  0  0  0
  1  2  1  0
  2  3  1  0
  3  4  1  0
  4  5  1  0
  5  6  2  0
  6  7  1  0
  7  8  2  0
  8  9  1  0
  9 10  1  0
 10 11  1  0
 11 12  2  0
 11 13  1  0
 13 14  2  0
 14 15  1  0
 15 16  2  0
 16 17  1  0
 17 18  1  0
 17 19  1  0
 17 20  1  0
 16 21  1  0
 21 22  2  0
  9 23  2  0
 23 24  1  0
 24 25  1  0
  4 26  2  0
 26 27  1  0
 27 28  2  0
 28 29  1  0
 29 30  2  0
 30 31  1  0
 31 32  2  0
 32 33  1  0
 33 34  2  0
 33 35  1  0
 35 36  1  0
 36 37  1  0
 37 38  1  0
 38 39  1  0
 39 40  1  0
 32 41  1  0
 41 42  2  0
 27 43  1  0
 43 44  2  0
 43  2  1  0
 23  5  1  0
 42 29  1  0
 22 13  1  0
 40 35  1  0
M  END
>  <shape_align_shape_tanimoto>  (3) 
0.41063125776377196

>  <shape_align_color_tanimoto>  (3) 
0.059609803470460597

>  <metric>  (3) 
combo

>  <metric_score>  (3) 
0.235

>  <template_pid>  (3) 
6BIK

>  <template_shape_score>  (3) 
0.411

>  <template_color_score>  (3) 
0.060

>  <template_combo_score>  (3) 
0.235

$$$$
