2VD7_shape_pose
     RDKit          3D

 12 12  0  0  0  0  0  0  0  0999 V2000
  -23.0050   18.0657    7.8294 O   0  0  0  0  0  0  0  0  0  0  0  0
  -23.5678   19.0991    7.3990 C   0  0  0  0  0  0  0  0  0  0  0  0
  -23.9014   20.0772    8.3100 O   0  0  0  0  0  0  0  0  0  0  0  0
  -23.8812   19.3079    5.9890 C   0  0  0  0  0  0  0  0  0  0  0  0
  -23.5512   18.3305    5.0567 C   0  0  0  0  0  0  0  0  0  0  0  0
  -23.8532   18.5420    3.7311 C   0  0  0  0  0  0  0  0  0  0  0  0
  -24.4587   19.6822    3.3583 N   0  0  0  0  0  0  0  0  0  0  0  0
  -24.7996   20.6589    4.2167 C   0  0  0  0  0  0  0  0  0  0  0  0
  -25.4569   21.8917    3.7965 C   0  0  0  0  0  0  0  0  0  0  0  0
  -25.7609   22.7894    4.6477 O   0  0  0  0  0  0  0  0  0  0  0  0
  -25.7794   22.1508    2.4873 O   0  0  0  0  0  0  0  0  0  0  0  0
  -24.5112   20.4800    5.5563 C   0  0  0  0  0  0  0  0  0  0  0  0
  1  2  2  0
  2  3  1  0
  2  4  1  0
  4  5  2  0
  5  6  1  0
  6  7  2  0
  7  8  1  0
  8  9  1  0
  9 10  2  0
  9 11  1  0
  8 12  2  0
 12  4  1  0
M  CHG  2   3  -1  11  -1
M  END
>  <shape_align_shape_tanimoto>  (1) 
0.45165434584742475

>  <shape_align_color_tanimoto>  (1) 
0.026558386023839552

>  <metric>  (1) 
shape

>  <metric_score>  (1) 
0.452

>  <template_pid>  (1) 
2VD7

>  <template_shape_score>  (1) 
0.452

>  <template_color_score>  (1) 
0.027

>  <template_combo_score>  (1) 
0.239

$$$$
2VD7_color_pose
     RDKit          3D

 12 12  0  0  0  0  0  0  0  0999 V2000
  -22.9074   18.0578    6.1705 O   0  0  0  0  0  0  0  0  0  0  0  0
  -23.6928   19.0046    6.3373 C   0  0  0  0  0  0  0  0  0  0  0  0
  -24.0129   19.3565    7.6425 O   0  0  0  0  0  0  0  0  0  0  0  0
  -24.2985   19.7684    5.2452 C   0  0  0  0  0  0  0  0  0  0  0  0
  -23.9995   19.4423    3.9262 C   0  0  0  0  0  0  0  0  0  0  0  0
  -24.5406   20.1271    2.8561 C   0  0  0  0  0  0  0  0  0  0  0  0
  -25.3816   21.1381    3.1359 N   0  0  0  0  0  0  0  0  0  0  0  0
  -25.6883   21.4748    4.4063 C   0  0  0  0  0  0  0  0  0  0  0  0
  -26.6140   22.5905    4.6145 C   0  0  0  0  0  0  0  0  0  0  0  0
  -27.0913   23.1956    3.6330 O   0  0  0  0  0  0  0  0  0  0  0  0
  -26.9720   22.9889    5.8971 O   0  0  0  0  0  0  0  0  0  0  0  0
  -25.1750   20.8229    5.5038 C   0  0  0  0  0  0  0  0  0  0  0  0
  1  2  2  0
  2  3  1  0
  2  4  1  0
  4  5  2  0
  5  6  1  0
  6  7  2  0
  7  8  1  0
  8  9  1  0
  9 10  2  0
  9 11  1  0
  8 12  2  0
 12  4  1  0
M  CHG  2   3  -1  11  -1
M  END
>  <shape_align_shape_tanimoto>  (2) 
0.41672532219456498

>  <shape_align_color_tanimoto>  (2) 
0.11870819003592314

>  <metric>  (2) 
color

>  <metric_score>  (2) 
0.119

>  <template_pid>  (2) 
2VD7

>  <template_shape_score>  (2) 
0.417

>  <template_color_score>  (2) 
0.119

>  <template_combo_score>  (2) 
0.268

$$$$
2VD7_combo_pose
     RDKit          3D

 12 12  0  0  0  0  0  0  0  0999 V2000
  -22.9074   18.0578    6.1705 O   0  0  0  0  0  0  0  0  0  0  0  0
  -23.6928   19.0046    6.3373 C   0  0  0  0  0  0  0  0  0  0  0  0
  -24.0129   19.3565    7.6425 O   0  0  0  0  0  0  0  0  0  0  0  0
  -24.2985   19.7684    5.2452 C   0  0  0  0  0  0  0  0  0  0  0  0
  -23.9995   19.4423    3.9262 C   0  0  0  0  0  0  0  0  0  0  0  0
  -24.5406   20.1271    2.8561 C   0  0  0  0  0  0  0  0  0  0  0  0
  -25.3816   21.1381    3.1359 N   0  0  0  0  0  0  0  0  0  0  0  0
  -25.6883   21.4748    4.4063 C   0  0  0  0  0  0  0  0  0  0  0  0
  -26.6140   22.5905    4.6145 C   0  0  0  0  0  0  0  0  0  0  0  0
  -27.0913   23.1956    3.6330 O   0  0  0  0  0  0  0  0  0  0  0  0
  -26.9720   22.9889    5.8971 O   0  0  0  0  0  0  0  0  0  0  0  0
  -25.1750   20.8229    5.5038 C   0  0  0  0  0  0  0  0  0  0  0  0
  1  2  2  0
  2  3  1  0
  2  4  1  0
  4  5  2  0
  5  6  1  0
  6  7  2  0
  7  8  1  0
  8  9  1  0
  9 10  2  0
  9 11  1  0
  8 12  2  0
 12  4  1  0
M  CHG  2   3  -1  11  -1
M  END
>  <shape_align_shape_tanimoto>  (3) 
0.41672532219456498

>  <shape_align_color_tanimoto>  (3) 
0.11870819003592314

>  <metric>  (3) 
combo

>  <metric_score>  (3) 
0.268

>  <template_pid>  (3) 
2VD7

>  <template_shape_score>  (3) 
0.417

>  <template_color_score>  (3) 
0.119

>  <template_combo_score>  (3) 
0.268

$$$$
