5CT2_shape_pose
     RDKit          3D

 14 14  0  0  0  0  0  0  0  0999 V2000
   12.0869  -12.5557   20.2560 O   0  0  0  0  0  0  0  0  0  0  0  0
   12.9212  -12.3943   21.4944 S   0  0  0  0  0  0  0  0  0  0  0  0
   12.1803  -11.4965   22.4402 O   0  0  0  0  0  0  0  0  0  0  0  0
   13.1219  -13.9172   22.1704 O   0  0  0  0  0  0  0  0  0  0  0  0
   14.5214  -11.7026   21.0607 C   0  0  0  0  0  0  0  0  0  0  0  0
   15.1618  -12.6305   20.0692 C   0  0  0  0  0  0  0  0  0  0  0  0
   16.5235  -12.1870   19.6016 C   0  0  0  0  0  0  0  0  0  0  0  0
   17.4662  -12.0763   20.7038 N   0  0  0  0  0  0  0  0  0  0  0  0
   17.8362  -13.3887   21.1442 C   0  0  0  0  0  0  0  0  0  0  0  0
   17.5298  -13.6695   22.5975 C   0  0  0  0  0  0  0  0  0  0  0  0
   17.4613  -15.2007   22.6709 C   0  0  0  0  0  0  0  0  0  0  0  0
   18.7782  -15.7933   22.2940 C   0  0  0  0  0  0  0  0  0  0  0  0
   19.4793  -15.1584   21.1494 C   0  0  0  0  0  0  0  0  0  0  0  0
   19.3374  -13.6670   21.0398 C   0  0  0  0  0  0  0  0  0  0  0  0
  1  2  2  0
  2  3  2  0
  2  4  1  0
  2  5  1  0
  5  6  1  0
  6  7  1  0
  7  8  1  0
  8  9  1  0
  9 10  1  0
 10 11  1  0
 11 12  1  0
 12 13  1  0
 13 14  1  0
 14  9  1  0
M  CHG  2   4  -1   8   1
M  END
>  <shape_align_shape_tanimoto>  (1) 
0.41811657370188698

>  <shape_align_color_tanimoto>  (1) 
0.0067765630868910571

>  <metric>  (1) 
shape

>  <metric_score>  (1) 
0.418

>  <template_pid>  (1) 
5CT2

>  <template_shape_score>  (1) 
0.418

>  <template_color_score>  (1) 
0.007

>  <template_combo_score>  (1) 
0.212

$$$$
5CT2_color_pose
     RDKit          3D

 14 14  0  0  0  0  0  0  0  0999 V2000
   22.1331  -14.8633   25.2200 O   0  0  0  0  0  0  0  0  0  0  0  0
   20.7396  -15.3318   25.0191 S   0  0  0  0  0  0  0  0  0  0  0  0
   19.8324  -14.6368   25.9766 O   0  0  0  0  0  0  0  0  0  0  0  0
   20.6755  -16.9761   25.3484 O   0  0  0  0  0  0  0  0  0  0  0  0
   20.2333  -15.0334   23.3341 C   0  0  0  0  0  0  0  0  0  0  0  0
   18.8357  -15.5064   23.0875 C   0  0  0  0  0  0  0  0  0  0  0  0
   18.3540  -15.2784   21.6745 C   0  0  0  0  0  0  0  0  0  0  0  0
   18.3458  -13.9047   21.2737 N   0  0  0  0  0  0  0  0  0  0  0  0
   17.0374  -13.5324   20.7939 C   0  0  0  0  0  0  0  0  0  0  0  0
   16.1679  -13.2244   21.9737 C   0  0  0  0  0  0  0  0  0  0  0  0
   15.7844  -11.7405   21.9712 C   0  0  0  0  0  0  0  0  0  0  0  0
   14.8687  -11.5883   20.7550 C   0  0  0  0  0  0  0  0  0  0  0  0
   15.6597  -11.9580   19.5361 C   0  0  0  0  0  0  0  0  0  0  0  0
   17.0791  -12.3777   19.8295 C   0  0  0  0  0  0  0  0  0  0  0  0
  1  2  2  0
  2  3  2  0
  2  4  1  0
  2  5  1  0
  5  6  1  0
  6  7  1  0
  7  8  1  0
  8  9  1  0
  9 10  1  0
 10 11  1  0
 11 12  1  0
 12 13  1  0
 13 14  1  0
 14  9  1  0
M  CHG  2   4  -1   8   1
M  END
>  <shape_align_shape_tanimoto>  (2) 
0.35997628211723348

>  <shape_align_color_tanimoto>  (2) 
0.14821696462747166

>  <metric>  (2) 
color

>  <metric_score>  (2) 
0.148

>  <template_pid>  (2) 
5CT2

>  <template_shape_score>  (2) 
0.360

>  <template_color_score>  (2) 
0.148

>  <template_combo_score>  (2) 
0.254

$$$$
5CT2_combo_pose
     RDKit          3D

 14 14  0  0  0  0  0  0  0  0999 V2000
   22.1331  -14.8633   25.2200 O   0  0  0  0  0  0  0  0  0  0  0  0
   20.7396  -15.3318   25.0191 S   0  0  0  0  0  0  0  0  0  0  0  0
   19.8324  -14.6368   25.9766 O   0  0  0  0  0  0  0  0  0  0  0  0
   20.6755  -16.9761   25.3484 O   0  0  0  0  0  0  0  0  0  0  0  0
   20.2333  -15.0334   23.3341 C   0  0  0  0  0  0  0  0  0  0  0  0
   18.8357  -15.5064   23.0875 C   0  0  0  0  0  0  0  0  0  0  0  0
   18.3540  -15.2784   21.6745 C   0  0  0  0  0  0  0  0  0  0  0  0
   18.3458  -13.9047   21.2737 N   0  0  0  0  0  0  0  0  0  0  0  0
   17.0374  -13.5324   20.7939 C   0  0  0  0  0  0  0  0  0  0  0  0
   16.1679  -13.2244   21.9737 C   0  0  0  0  0  0  0  0  0  0  0  0
   15.7844  -11.7405   21.9712 C   0  0  0  0  0  0  0  0  0  0  0  0
   14.8687  -11.5883   20.7550 C   0  0  0  0  0  0  0  0  0  0  0  0
   15.6597  -11.9580   19.5361 C   0  0  0  0  0  0  0  0  0  0  0  0
   17.0791  -12.3777   19.8295 C   0  0  0  0  0  0  0  0  0  0  0  0
  1  2  2  0
  2  3  2  0
  2  4  1  0
  2  5  1  0
  5  6  1  0
  6  7  1  0
  7  8  1  0
  8  9  1  0
  9 10  1  0
 10 11  1  0
 11 12  1  0
 12 13  1  0
 13 14  1  0
 14  9  1  0
M  CHG  2   4  -1   8   1
M  END
>  <shape_align_shape_tanimoto>  (3) 
0.35997628211723348

>  <shape_align_color_tanimoto>  (3) 
0.14821696462747166

>  <metric>  (3) 
combo

>  <metric_score>  (3) 
0.254

>  <template_pid>  (3) 
5CT2

>  <template_shape_score>  (3) 
0.360

>  <template_color_score>  (3) 
0.148

>  <template_combo_score>  (3) 
0.254

$$$$
