4RPV_shape_pose
     RDKit          3D

 30 34  0  0  0  0  0  0  0  0999 V2000
   11.2623   -5.6098   15.3072 N   0  0  0  0  0  0  0  0  0  0  0  0
    9.8572   -5.2880   15.1515 C   0  0  1  0  0  0  0  0  0  0  0  0
    9.0694   -6.5458   15.3903 C   0  0  0  0  0  0  0  0  0  0  0  0
    7.6229   -6.2128   15.0728 C   0  0  0  0  0  0  0  0  0  0  0  0
    7.1025   -5.2276   16.0676 C   0  0  0  0  0  0  0  0  0  0  0  0
    8.0663   -4.2481   16.5035 N   0  0  0  0  0  0  0  0  0  0  0  0
    7.6553   -3.3103   17.4836 C   0  0  0  0  0  0  0  0  0  0  0  0
    8.4917   -2.3162   17.9652 C   0  0  0  0  0  0  0  0  0  0  0  0
    8.1011   -1.4267   18.8958 N   0  0  0  0  0  0  0  0  0  0  0  0
    6.8719   -1.4668   19.4008 C   0  0  0  0  0  0  0  0  0  0  0  0
    6.0020   -2.4376   18.9537 C   0  0  0  0  0  0  0  0  0  0  0  0
    4.6440   -2.5015   19.4949 C   0  0  0  0  0  0  0  0  0  0  0  0
    4.1234   -1.6788   20.4254 N   0  0  0  0  0  0  0  0  0  0  0  0
    2.8778   -2.0642   20.6429 N   0  0  0  0  0  0  0  0  0  0  0  0
    2.5620   -3.1140   19.8856 C   0  0  0  0  0  0  0  0  0  0  0  0
    1.4193   -3.8768   19.7361 C   0  0  0  0  0  0  0  0  0  0  0  0
    1.3603   -4.9373   18.8571 C   0  0  0  0  0  0  0  0  0  0  0  0
    2.4844   -5.2357   18.1093 C   0  0  0  0  0  0  0  0  0  0  0  0
    2.5105   -6.3394   17.1566 C   0  0  0  0  0  0  0  0  0  0  0  0
    2.1608   -6.2055   15.8303 C   0  0  0  0  0  0  0  0  0  0  0  0
    1.7693   -4.9945   15.3654 F   0  0  0  0  0  0  0  0  0  0  0  0
    2.2184   -7.3220   14.9974 C   0  0  0  0  0  0  0  0  0  0  0  0
    2.6245   -8.5371   15.5193 C   0  0  0  0  0  0  0  0  0  0  0  0
    2.9781   -8.6872   16.8464 C   0  0  0  0  0  0  0  0  0  0  0  0
    2.9176   -7.5728   17.6654 C   0  0  0  0  0  0  0  0  0  0  0  0
    3.2652   -7.7284   18.9619 F   0  0  0  0  0  0  0  0  0  0  0  0
    3.6449   -4.4923   18.2344 C   0  0  0  0  0  0  0  0  0  0  0  0
    3.6791   -3.4228   19.1320 C   0  0  0  0  0  0  0  0  0  0  0  0
    6.4036   -3.3235   18.0214 N   0  0  0  0  0  0  0  0  0  0  0  0
    9.4219   -4.1520   16.0139 C   0  0  0  0  0  0  0  0  0  0  0  0
  2  1  1  1
  2  3  1  0
  3  4  1  0
  4  5  1  0
  5  6  1  0
  6  7  1  0
  7  8  2  0
  8  9  1  0
  9 10  2  0
 10 11  1  0
 11 12  1  0
 12 13  1  0
 13 14  1  0
 14 15  2  0
 15 16  1  0
 16 17  2  0
 17 18  1  0
 18 19  1  0
 19 20  2  0
 20 21  1  0
 20 22  1  0
 22 23  2  0
 23 24  1  0
 24 25  2  0
 25 26  1  0
 18 27  2  0
 27 28  1  0
 11 29  2  0
  6 30  1  0
 30  2  1  0
 29  7  1  0
 28 12  2  0
 28 15  1  0
 25 19  1  0
M  CHG  1   1   1
M  END
>  <shape_align_shape_tanimoto>  (1) 
0.67998380140832515

>  <shape_align_color_tanimoto>  (1) 
0.033791481289921321

>  <metric>  (1) 
shape

>  <metric_score>  (1) 
0.680

>  <template_pid>  (1) 
4RPV

>  <template_shape_score>  (1) 
0.680

>  <template_color_score>  (1) 
0.034

>  <template_combo_score>  (1) 
0.357

$$$$
4RPV_color_pose
     RDKit          3D

 30 34  0  0  0  0  0  0  0  0999 V2000
    9.0803   -7.9966   13.9334 N   0  0  0  0  0  0  0  0  0  0  0  0
    9.0075   -7.3352   15.2230 C   0  0  1  0  0  0  0  0  0  0  0  0
   10.3792   -7.1844   15.8194 C   0  0  0  0  0  0  0  0  0  0  0  0
   11.1326   -6.0079   15.2544 C   0  0  0  0  0  0  0  0  0  0  0  0
   10.3429   -4.7235   15.2944 C   0  0  0  0  0  0  0  0  0  0  0  0
    8.9797   -4.9135   15.6875 N   0  0  0  0  0  0  0  0  0  0  0  0
    8.2815   -4.0963   16.6177 C   0  0  0  0  0  0  0  0  0  0  0  0
    8.8739   -3.0018   17.1906 C   0  0  0  0  0  0  0  0  0  0  0  0
    8.1500   -2.2856   18.0600 N   0  0  0  0  0  0  0  0  0  0  0  0
    6.8602   -2.6431   18.3603 C   0  0  0  0  0  0  0  0  0  0  0  0
    6.2477   -3.7233   17.8070 C   0  0  0  0  0  0  0  0  0  0  0  0
    4.9147   -4.2132   18.0242 C   0  0  0  0  0  0  0  0  0  0  0  0
    4.4403   -5.3266   17.3826 N   0  0  0  0  0  0  0  0  0  0  0  0
    3.1971   -5.5691   17.7490 N   0  0  0  0  0  0  0  0  0  0  0  0
    2.7748   -4.6588   18.6332 C   0  0  0  0  0  0  0  0  0  0  0  0
    1.5841   -4.4821   19.2976 C   0  0  0  0  0  0  0  0  0  0  0  0
    1.4388   -3.4254   20.1714 C   0  0  0  0  0  0  0  0  0  0  0  0
    2.5251   -2.5939   20.3257 C   0  0  0  0  0  0  0  0  0  0  0  0
    2.3832   -1.4748   21.2474 C   0  0  0  0  0  0  0  0  0  0  0  0
    1.9131   -0.2648   20.7591 C   0  0  0  0  0  0  0  0  0  0  0  0
    1.5996   -0.1517   19.4496 F   0  0  0  0  0  0  0  0  0  0  0  0
    1.7873    0.7838   21.6558 C   0  0  0  0  0  0  0  0  0  0  0  0
    2.1117    0.6512   22.9882 C   0  0  0  0  0  0  0  0  0  0  0  0
    2.5818   -0.5521   23.4859 C   0  0  0  0  0  0  0  0  0  0  0  0
    2.7097   -1.6004   22.5993 C   0  0  0  0  0  0  0  0  0  0  0  0
    3.1715   -2.8193   23.0338 F   0  0  0  0  0  0  0  0  0  0  0  0
    3.7225   -2.7743   19.6556 C   0  0  0  0  0  0  0  0  0  0  0  0
    3.8690   -3.8053   18.8008 C   0  0  0  0  0  0  0  0  0  0  0  0
    7.0206   -4.4288   16.9242 N   0  0  0  0  0  0  0  0  0  0  0  0
    8.2774   -6.0484   15.0605 C   0  0  0  0  0  0  0  0  0  0  0  0
  2  1  1  6
  2  3  1  0
  3  4  1  0
  4  5  1  0
  5  6  1  0
  6  7  1  0
  7  8  2  0
  8  9  1  0
  9 10  2  0
 10 11  1  0
 11 12  1  0
 12 13  1  0
 13 14  1  0
 14 15  2  0
 15 16  1  0
 16 17  2  0
 17 18  1  0
 18 19  1  0
 19 20  2  0
 20 21  1  0
 20 22  1  0
 22 23  2  0
 23 24  1  0
 24 25  2  0
 25 26  1  0
 18 27  2  0
 27 28  1  0
 11 29  2  0
  6 30  1  0
 30  2  1  0
 29  7  1  0
 28 12  2  0
 28 15  1  0
 25 19  1  0
M  CHG  1   1   1
M  END
>  <shape_align_shape_tanimoto>  (2) 
0.45791068032001281

>  <shape_align_color_tanimoto>  (2) 
0.13787447289364926

>  <metric>  (2) 
color

>  <metric_score>  (2) 
0.138

>  <template_pid>  (2) 
4RPV

>  <template_shape_score>  (2) 
0.458

>  <template_color_score>  (2) 
0.138

>  <template_combo_score>  (2) 
0.298

$$$$
4RPV_combo_pose
     RDKit          3D

 30 34  0  0  0  0  0  0  0  0999 V2000
   11.2811   -5.2286   16.3782 N   0  0  0  0  0  0  0  0  0  0  0  0
   10.3720   -5.7942   15.4008 C   0  0  1  0  0  0  0  0  0  0  0  0
    9.4644   -6.7680   16.1190 C   0  0  0  0  0  0  0  0  0  0  0  0
    8.1284   -6.9024   15.3914 C   0  0  0  0  0  0  0  0  0  0  0  0
    7.3547   -5.5770   15.4113 C   0  0  0  0  0  0  0  0  0  0  0  0
    8.3700   -4.5636   15.6610 N   0  0  0  0  0  0  0  0  0  0  0  0
    8.1779   -3.5759   16.6646 C   0  0  0  0  0  0  0  0  0  0  0  0
    9.1405   -2.6384   16.9838 C   0  0  0  0  0  0  0  0  0  0  0  0
    8.9619   -1.6961   17.9342 N   0  0  0  0  0  0  0  0  0  0  0  0
    7.7947   -1.7066   18.5659 C   0  0  0  0  0  0  0  0  0  0  0  0
    6.7867   -2.6274   18.2868 C   0  0  0  0  0  0  0  0  0  0  0  0
    5.5532   -2.5262   19.0523 C   0  0  0  0  0  0  0  0  0  0  0  0
    5.2751   -1.6158   20.0296 N   0  0  0  0  0  0  0  0  0  0  0  0
    4.0616   -1.8201   20.5056 N   0  0  0  0  0  0  0  0  0  0  0  0
    3.4824   -2.8578   19.8800 C   0  0  0  0  0  0  0  0  0  0  0  0
    2.2466   -3.4525   20.0135 C   0  0  0  0  0  0  0  0  0  0  0  0
    1.8986   -4.5382   19.2178 C   0  0  0  0  0  0  0  0  0  0  0  0
    2.8287   -4.9870   18.3038 C   0  0  0  0  0  0  0  0  0  0  0  0
    2.5138   -6.1375   17.4308 C   0  0  0  0  0  0  0  0  0  0  0  0
    1.9160   -5.8858   16.2019 C   0  0  0  0  0  0  0  0  0  0  0  0
    1.6404   -4.6207   15.8366 F   0  0  0  0  0  0  0  0  0  0  0  0
    1.6164   -6.9447   15.3777 C   0  0  0  0  0  0  0  0  0  0  0  0
    1.8974   -8.2614   15.7449 C   0  0  0  0  0  0  0  0  0  0  0  0
    2.4905   -8.4943   16.9672 C   0  0  0  0  0  0  0  0  0  0  0  0
    2.7970   -7.4340   17.8063 C   0  0  0  0  0  0  0  0  0  0  0  0
    3.3781   -7.6569   19.0049 F   0  0  0  0  0  0  0  0  0  0  0  0
    4.0621   -4.3766   18.1858 C   0  0  0  0  0  0  0  0  0  0  0  0
    4.4164   -3.3010   18.9690 C   0  0  0  0  0  0  0  0  0  0  0  0
    7.0023   -3.5502   17.3337 N   0  0  0  0  0  0  0  0  0  0  0  0
    9.5592   -4.6300   14.8332 C   0  0  0  0  0  0  0  0  0  0  0  0
  2  1  1  1
  2  3  1  0
  3  4  1  0
  4  5  1  0
  5  6  1  0
  6  7  1  0
  7  8  2  0
  8  9  1  0
  9 10  2  0
 10 11  1  0
 11 12  1  0
 12 13  1  0
 13 14  1  0
 14 15  2  0
 15 16  1  0
 16 17  2  0
 17 18  1  0
 18 19  1  0
 19 20  2  0
 20 21  1  0
 20 22  1  0
 22 23  2  0
 23 24  1  0
 24 25  2  0
 25 26  1  0
 18 27  2  0
 27 28  1  0
 11 29  2  0
  6 30  1  0
 30  2  1  0
 29  7  1  0
 28 12  2  0
 28 15  1  0
 25 19  1  0
M  CHG  1   1   1
M  END
>  <shape_align_shape_tanimoto>  (3) 
0.65405880622678181

>  <shape_align_color_tanimoto>  (3) 
0.081903613490782332

>  <metric>  (3) 
combo

>  <metric_score>  (3) 
0.368

>  <template_pid>  (3) 
4RPV

>  <template_shape_score>  (3) 
0.654

>  <template_color_score>  (3) 
0.082

>  <template_combo_score>  (3) 
0.368

$$$$
