2R1Y_shape_pose
     RDKit          3D

 33 34  0  0  0  0  0  0  0  0999 V2000
   -9.8520   36.4237   21.3701 C   0  0  0  0  0  0  0  0  0  0  0  0
  -10.9595   36.3509   20.6464 C   0  0  0  0  0  0  0  0  0  0  0  0
  -10.9867   36.7053   19.1733 C   0  0  0  0  0  0  0  0  0  0  0  0
  -11.8725   37.7248   19.0575 O   0  0  0  0  0  0  0  0  0  0  0  0
  -12.1303   38.2371   17.7995 C   0  0  2  0  0  0  0  0  0  0  0  0
  -12.8099   37.1926   16.9332 C   0  0  0  0  0  0  0  0  0  0  0  0
  -14.0196   36.7712   17.4702 O   0  0  0  0  0  0  0  0  0  0  0  0
  -10.8762   38.6380   17.1236 C   0  0  0  0  0  0  0  0  0  0  0  0
  -10.2882   39.9280   17.6796 C   0  0  1  0  0  0  0  0  0  0  0  0
   -9.3340   40.3905   16.8278 O   0  0  0  0  0  0  0  0  0  0  0  0
   -8.0268   40.3482   17.1896 C   0  0  2  0  0  0  0  0  0  0  0  0
   -7.7951   41.1358   18.4231 C   0  0  0  0  0  0  0  0  0  0  0  0
   -8.6480   41.7523   19.0815 O   0  0  0  0  0  0  0  0  0  0  0  0
   -6.4803   41.1869   18.8890 O   0  0  0  0  0  0  0  0  0  0  0  0
   -7.2615   41.1056   16.1036 C   0  0  0  0  0  0  0  0  0  0  0  0
   -7.3343   40.2380   14.8776 C   0  0  1  0  0  0  0  0  0  0  0  0
   -6.6966   40.8937   13.8314 O   0  0  0  0  0  0  0  0  0  0  0  0
   -6.7208   38.8921   15.1544 C   0  0  1  0  0  0  0  0  0  0  0  0
   -5.3438   39.1140   15.2158 O   0  0  0  0  0  0  0  0  0  0  0  0
   -7.1563   38.2840   16.4438 C   0  0  1  0  0  0  0  0  0  0  0  0
   -6.0733   37.3223   16.9531 C   0  0  2  0  0  0  0  0  0  0  0  0
   -4.9509   37.9651   17.4083 O   0  0  0  0  0  0  0  0  0  0  0  0
   -5.6657   36.3513   15.8689 C   0  0  0  0  0  0  0  0  0  0  0  0
   -4.7751   35.4223   16.3612 O   0  0  0  0  0  0  0  0  0  0  0  0
   -7.5356   39.0900   17.4425 O   0  0  0  0  0  0  0  0  0  0  0  0
  -11.3590   40.9173   17.9236 C   0  0  1  0  0  0  0  0  0  0  0  0
  -11.0505   42.1537   17.3161 O   0  0  0  0  0  0  0  0  0  0  0  0
  -12.7641   40.5137   17.6594 C   0  0  1  0  0  0  0  0  0  0  0  0
  -13.3832   40.9791   16.3705 C   0  0  2  0  0  0  0  0  0  0  0  0
  -13.0360   40.3231   15.2327 O   0  0  0  0  0  0  0  0  0  0  0  0
  -13.4262   42.4496   16.1495 C   0  0  0  0  0  0  0  0  0  0  0  0
  -14.4105   42.7123   15.1635 O   0  0  0  0  0  0  0  0  0  0  0  0
  -13.0498   39.2354   17.9815 O   0  0  0  0  0  0  0  0  0  0  0  0
  1  2  2  0
  2  3  1  0
  3  4  1  0
  4  5  1  0
  5  6  1  6
  6  7  1  0
  5  8  1  0
  8  9  1  0
  9 10  1  6
 11 10  1  6
 11 12  1  0
 12 13  2  0
 12 14  1  0
 11 15  1  0
 15 16  1  0
 16 17  1  6
 16 18  1  0
 18 19  1  1
 18 20  1  0
 20 21  1  0
 21 22  1  6
 21 23  1  0
 23 24  1  0
 20 25  1  1
  9 26  1  0
 26 27  1  6
 26 28  1  0
 28 29  1  0
 29 30  1  6
 29 31  1  0
 31 32  1  0
 28 33  1  6
 33  5  1  0
 25 11  1  0
M  CHG  1  14  -1
M  END
>  <shape_align_shape_tanimoto>  (1) 
0.63441430208196725

>  <shape_align_color_tanimoto>  (1) 
0.049193024562186397

>  <metric>  (1) 
shape

>  <metric_score>  (1) 
0.634

>  <template_pid>  (1) 
2R1Y

>  <template_shape_score>  (1) 
0.634

>  <template_color_score>  (1) 
0.049

>  <template_combo_score>  (1) 
0.342

$$$$
2R1Y_color_pose
     RDKit          3D

 33 34  0  0  0  0  0  0  0  0999 V2000
   -9.0143   45.9429   19.1556 C   0  0  0  0  0  0  0  0  0  0  0  0
   -9.7777   45.4284   20.1146 C   0  0  0  0  0  0  0  0  0  0  0  0
   -9.9027   43.9185   20.2255 C   0  0  0  0  0  0  0  0  0  0  0  0
   -9.1412   43.4032   19.2357 O   0  0  0  0  0  0  0  0  0  0  0  0
   -9.0662   42.0602   19.0508 C   0  0  2  0  0  0  0  0  0  0  0  0
   -8.5052   41.2823   20.2367 C   0  0  0  0  0  0  0  0  0  0  0  0
   -9.2796   41.4345   21.3813 O   0  0  0  0  0  0  0  0  0  0  0  0
   -8.0661   41.8366   17.9087 C   0  0  0  0  0  0  0  0  0  0  0  0
   -8.8160   41.3129   16.6443 C   0  0  1  0  0  0  0  0  0  0  0  0
   -9.0454   39.9786   16.7685 O   0  0  0  0  0  0  0  0  0  0  0  0
   -8.4186   39.1059   15.9293 C   0  0  2  0  0  0  0  0  0  0  0  0
   -8.8364   39.1377   14.5096 C   0  0  0  0  0  0  0  0  0  0  0  0
   -9.7151   39.8445   14.0006 O   0  0  0  0  0  0  0  0  0  0  0  0
   -8.1542   38.2635   13.6454 O   0  0  0  0  0  0  0  0  0  0  0  0
   -8.9142   37.6970   16.3884 C   0  0  0  0  0  0  0  0  0  0  0  0
   -8.4315   37.3697   17.7580 C   0  0  1  0  0  0  0  0  0  0  0  0
   -8.5068   35.9774   17.9648 O   0  0  0  0  0  0  0  0  0  0  0  0
   -7.0920   37.9302   18.0806 C   0  0  1  0  0  0  0  0  0  0  0  0
   -6.3026   36.8433   18.5362 O   0  0  0  0  0  0  0  0  0  0  0  0
   -6.3662   38.5913   16.9739 C   0  0  1  0  0  0  0  0  0  0  0  0
   -5.2185   37.6919   16.4876 C   0  0  2  0  0  0  0  0  0  0  0  0
   -4.3482   38.4381   15.6984 O   0  0  0  0  0  0  0  0  0  0  0  0
   -5.6827   36.5086   15.7142 C   0  0  0  0  0  0  0  0  0  0  0  0
   -4.5566   35.7303   15.3674 O   0  0  0  0  0  0  0  0  0  0  0  0
   -7.0506   39.1064   15.9393 O   0  0  0  0  0  0  0  0  0  0  0  0
  -10.0171   42.2145   16.5588 C   0  0  1  0  0  0  0  0  0  0  0  0
  -10.6110   42.3361   15.3385 O   0  0  0  0  0  0  0  0  0  0  0  0
  -10.9770   41.9907   17.7068 C   0  0  1  0  0  0  0  0  0  0  0  0
  -12.0931   41.0347   17.3950 C   0  0  2  0  0  0  0  0  0  0  0  0
  -11.6422   39.7630   17.0582 O   0  0  0  0  0  0  0  0  0  0  0  0
  -13.1427   41.5641   16.4753 C   0  0  0  0  0  0  0  0  0  0  0  0
  -14.2293   40.6658   16.5438 O   0  0  0  0  0  0  0  0  0  0  0  0
  -10.2817   41.4868   18.7725 O   0  0  0  0  0  0  0  0  0  0  0  0
  1  2  2  0
  2  3  1  0
  3  4  1  0
  4  5  1  0
  5  6  1  1
  6  7  1  0
  5  8  1  0
  8  9  1  0
  9 10  1  1
 11 10  1  1
 11 12  1  0
 12 13  2  0
 12 14  1  0
 11 15  1  0
 15 16  1  0
 16 17  1  6
 16 18  1  0
 18 19  1  6
 18 20  1  0
 20 21  1  0
 21 22  1  6
 21 23  1  0
 23 24  1  0
 20 25  1  6
  9 26  1  0
 26 27  1  6
 26 28  1  0
 28 29  1  0
 29 30  1  6
 29 31  1  0
 31 32  1  0
 28 33  1  1
 33  5  1  0
 25 11  1  0
M  CHG  1  14  -1
M  END
>  <shape_align_shape_tanimoto>  (2) 
0.4496984121489605

>  <shape_align_color_tanimoto>  (2) 
0.057602562729674671

>  <metric>  (2) 
color

>  <metric_score>  (2) 
0.058

>  <template_pid>  (2) 
2R1Y

>  <template_shape_score>  (2) 
0.450

>  <template_color_score>  (2) 
0.058

>  <template_combo_score>  (2) 
0.254

$$$$
2R1Y_combo_pose
     RDKit          3D

 33 34  0  0  0  0  0  0  0  0999 V2000
   -9.8520   36.4237   21.3701 C   0  0  0  0  0  0  0  0  0  0  0  0
  -10.9595   36.3509   20.6464 C   0  0  0  0  0  0  0  0  0  0  0  0
  -10.9867   36.7053   19.1733 C   0  0  0  0  0  0  0  0  0  0  0  0
  -11.8725   37.7248   19.0575 O   0  0  0  0  0  0  0  0  0  0  0  0
  -12.1303   38.2371   17.7995 C   0  0  2  0  0  0  0  0  0  0  0  0
  -12.8099   37.1926   16.9332 C   0  0  0  0  0  0  0  0  0  0  0  0
  -14.0196   36.7712   17.4702 O   0  0  0  0  0  0  0  0  0  0  0  0
  -10.8762   38.6380   17.1236 C   0  0  0  0  0  0  0  0  0  0  0  0
  -10.2882   39.9280   17.6796 C   0  0  1  0  0  0  0  0  0  0  0  0
   -9.3340   40.3905   16.8278 O   0  0  0  0  0  0  0  0  0  0  0  0
   -8.0268   40.3482   17.1896 C   0  0  2  0  0  0  0  0  0  0  0  0
   -7.7951   41.1358   18.4231 C   0  0  0  0  0  0  0  0  0  0  0  0
   -8.6480   41.7523   19.0815 O   0  0  0  0  0  0  0  0  0  0  0  0
   -6.4803   41.1869   18.8890 O   0  0  0  0  0  0  0  0  0  0  0  0
   -7.2615   41.1056   16.1036 C   0  0  0  0  0  0  0  0  0  0  0  0
   -7.3343   40.2380   14.8776 C   0  0  1  0  0  0  0  0  0  0  0  0
   -6.6966   40.8937   13.8314 O   0  0  0  0  0  0  0  0  0  0  0  0
   -6.7208   38.8921   15.1544 C   0  0  1  0  0  0  0  0  0  0  0  0
   -5.3438   39.1140   15.2158 O   0  0  0  0  0  0  0  0  0  0  0  0
   -7.1563   38.2840   16.4438 C   0  0  1  0  0  0  0  0  0  0  0  0
   -6.0733   37.3223   16.9531 C   0  0  2  0  0  0  0  0  0  0  0  0
   -4.9509   37.9651   17.4083 O   0  0  0  0  0  0  0  0  0  0  0  0
   -5.6657   36.3513   15.8689 C   0  0  0  0  0  0  0  0  0  0  0  0
   -4.7751   35.4223   16.3612 O   0  0  0  0  0  0  0  0  0  0  0  0
   -7.5356   39.0900   17.4425 O   0  0  0  0  0  0  0  0  0  0  0  0
  -11.3590   40.9173   17.9236 C   0  0  1  0  0  0  0  0  0  0  0  0
  -11.0505   42.1537   17.3161 O   0  0  0  0  0  0  0  0  0  0  0  0
  -12.7641   40.5137   17.6594 C   0  0  1  0  0  0  0  0  0  0  0  0
  -13.3832   40.9791   16.3705 C   0  0  2  0  0  0  0  0  0  0  0  0
  -13.0360   40.3231   15.2327 O   0  0  0  0  0  0  0  0  0  0  0  0
  -13.4262   42.4496   16.1495 C   0  0  0  0  0  0  0  0  0  0  0  0
  -14.4105   42.7123   15.1635 O   0  0  0  0  0  0  0  0  0  0  0  0
  -13.0498   39.2354   17.9815 O   0  0  0  0  0  0  0  0  0  0  0  0
  1  2  2  0
  2  3  1  0
  3  4  1  0
  4  5  1  0
  5  6  1  6
  6  7  1  0
  5  8  1  0
  8  9  1  0
  9 10  1  6
 11 10  1  6
 11 12  1  0
 12 13  2  0
 12 14  1  0
 11 15  1  0
 15 16  1  0
 16 17  1  6
 16 18  1  0
 18 19  1  1
 18 20  1  0
 20 21  1  0
 21 22  1  6
 21 23  1  0
 23 24  1  0
 20 25  1  1
  9 26  1  0
 26 27  1  6
 26 28  1  0
 28 29  1  0
 29 30  1  6
 29 31  1  0
 31 32  1  0
 28 33  1  6
 33  5  1  0
 25 11  1  0
M  CHG  1  14  -1
M  END
>  <shape_align_shape_tanimoto>  (3) 
0.63441430208196725

>  <shape_align_color_tanimoto>  (3) 
0.049193024562186397

>  <metric>  (3) 
combo

>  <metric_score>  (3) 
0.342

>  <template_pid>  (3) 
2R1Y

>  <template_shape_score>  (3) 
0.634

>  <template_color_score>  (3) 
0.049

>  <template_combo_score>  (3) 
0.342

$$$$
