3LP1_shape_pose
     RDKit          3D

 18 20  0  0  0  0  0  0  0  0999 V2000
  -36.6660  -73.0922    5.7034 O   0  0  0  0  0  0  0  0  0  0  0  0
  -36.3852  -74.0494    4.7290 N   0  0  0  0  0  0  0  0  0  0  0  0
  -36.3160  -73.6960    3.4172 C   0  0  0  0  0  0  0  0  0  0  0  0
  -36.5293  -72.3896    3.1039 O   0  0  0  0  0  0  0  0  0  0  0  0
  -36.0423  -74.6057    2.4245 C   0  0  0  0  0  0  0  0  0  0  0  0
  -35.9451  -74.3389    1.0030 C   0  0  0  0  0  0  0  0  0  0  0  0
  -34.5514  -73.9824    0.5045 C   0  0  0  0  0  0  0  0  0  0  0  0
  -34.8746  -73.8266   -0.9883 C   0  0  0  0  0  0  0  0  0  0  0  0
  -36.2457  -73.2136   -1.0093 C   0  0  0  0  0  0  0  0  0  0  0  0
  -36.7105  -73.1814    0.4627 C   0  0  0  0  0  0  0  0  0  0  0  0
  -35.8388  -75.9246    2.8551 C   0  0  0  0  0  0  0  0  0  0  0  0
  -35.5550  -76.9300    1.9392 O   0  0  0  0  0  0  0  0  0  0  0  0
  -35.9120  -76.2692    4.1895 C   0  0  0  0  0  0  0  0  0  0  0  0
  -35.7041  -77.5929    4.5858 C   0  0  0  0  0  0  0  0  0  0  0  0
  -35.7880  -77.8872    5.9318 C   0  0  0  0  0  0  0  0  0  0  0  0
  -36.0705  -76.8948    6.8596 C   0  0  0  0  0  0  0  0  0  0  0  0
  -36.2688  -75.6195    6.4581 N   0  0  0  0  0  0  0  0  0  0  0  0
  -36.1930  -75.3048    5.1526 C   0  0  0  0  0  0  0  0  0  0  0  0
  1  2  1  0
  2  3  2  0
  3  4  1  0
  3  5  1  0
  5  6  1  0
  6  7  1  0
  7  8  1  0
  8  9  1  0
  9 10  1  0
  5 11  2  0
 11 12  1  0
 11 13  1  0
 13 14  2  0
 14 15  1  0
 15 16  2  0
 16 17  1  0
 17 18  2  0
 18  2  1  0
 10  6  1  0
 18 13  1  0
M  CHG  2   1  -1   2   1
M  END
>  <shape_align_shape_tanimoto>  (1) 
0.66247281583194439

>  <shape_align_color_tanimoto>  (1) 
0.0088327415887611196

>  <metric>  (1) 
shape

>  <metric_score>  (1) 
0.662

>  <template_pid>  (1) 
3LP1

>  <template_shape_score>  (1) 
0.662

>  <template_color_score>  (1) 
0.009

>  <template_combo_score>  (1) 
0.336

$$$$
3LP1_color_pose
     RDKit          3D

 18 20  0  0  0  0  0  0  0  0999 V2000
  -37.0227  -71.7195    3.9026 O   0  0  0  0  0  0  0  0  0  0  0  0
  -36.6068  -73.0228    3.7412 N   0  0  0  0  0  0  0  0  0  0  0  0
  -36.5090  -73.8025    4.8253 C   0  0  0  0  0  0  0  0  0  0  0  0
  -36.8168  -73.3228    6.0930 O   0  0  0  0  0  0  0  0  0  0  0  0
  -36.0932  -75.1413    4.7497 C   0  0  0  0  0  0  0  0  0  0  0  0
  -36.0036  -75.9672    5.9513 C   0  0  0  0  0  0  0  0  0  0  0  0
  -37.2040  -76.8083    6.2392 C   0  0  0  0  0  0  0  0  0  0  0  0
  -36.7885  -78.1889    5.7609 C   0  0  0  0  0  0  0  0  0  0  0  0
  -35.2998  -78.2528    5.9223 C   0  0  0  0  0  0  0  0  0  0  0  0
  -34.8018  -76.8580    5.9846 C   0  0  0  0  0  0  0  0  0  0  0  0
  -35.7963  -75.5793    3.4659 C   0  0  0  0  0  0  0  0  0  0  0  0
  -35.3815  -76.8654    3.2648 O   0  0  0  0  0  0  0  0  0  0  0  0
  -35.9061  -74.7531    2.3667 C   0  0  0  0  0  0  0  0  0  0  0  0
  -35.6052  -75.2076    1.0915 C   0  0  0  0  0  0  0  0  0  0  0  0
  -35.7318  -74.3391    0.0225 C   0  0  0  0  0  0  0  0  0  0  0  0
  -36.1502  -73.0278    0.1842 C   0  0  0  0  0  0  0  0  0  0  0  0
  -36.4281  -72.6434    1.4454 N   0  0  0  0  0  0  0  0  0  0  0  0
  -36.3144  -73.4605    2.4940 C   0  0  0  0  0  0  0  0  0  0  0  0
  1  2  1  0
  2  3  2  0
  3  4  1  0
  3  5  1  0
  5  6  1  0
  6  7  1  0
  7  8  1  0
  8  9  1  0
  9 10  1  0
  5 11  2  0
 11 12  1  0
 11 13  1  0
 13 14  2  0
 14 15  1  0
 15 16  2  0
 16 17  1  0
 17 18  2  0
 18  2  1  0
 10  6  1  0
 18 13  1  0
M  CHG  2   1  -1   2   1
M  END
>  <shape_align_shape_tanimoto>  (2) 
0.61855018167514519

>  <shape_align_color_tanimoto>  (2) 
0.060797355035396287

>  <metric>  (2) 
color

>  <metric_score>  (2) 
0.061

>  <template_pid>  (2) 
3LP1

>  <template_shape_score>  (2) 
0.619

>  <template_color_score>  (2) 
0.061

>  <template_combo_score>  (2) 
0.340

$$$$
3LP1_combo_pose
     RDKit          3D

 18 20  0  0  0  0  0  0  0  0999 V2000
  -37.0227  -71.7195    3.9026 O   0  0  0  0  0  0  0  0  0  0  0  0
  -36.6068  -73.0228    3.7412 N   0  0  0  0  0  0  0  0  0  0  0  0
  -36.5090  -73.8025    4.8253 C   0  0  0  0  0  0  0  0  0  0  0  0
  -36.8168  -73.3228    6.0930 O   0  0  0  0  0  0  0  0  0  0  0  0
  -36.0932  -75.1413    4.7497 C   0  0  0  0  0  0  0  0  0  0  0  0
  -36.0036  -75.9672    5.9513 C   0  0  0  0  0  0  0  0  0  0  0  0
  -37.2040  -76.8083    6.2392 C   0  0  0  0  0  0  0  0  0  0  0  0
  -36.7885  -78.1889    5.7609 C   0  0  0  0  0  0  0  0  0  0  0  0
  -35.2998  -78.2528    5.9223 C   0  0  0  0  0  0  0  0  0  0  0  0
  -34.8018  -76.8580    5.9846 C   0  0  0  0  0  0  0  0  0  0  0  0
  -35.7963  -75.5793    3.4659 C   0  0  0  0  0  0  0  0  0  0  0  0
  -35.3815  -76.8654    3.2648 O   0  0  0  0  0  0  0  0  0  0  0  0
  -35.9061  -74.7531    2.3667 C   0  0  0  0  0  0  0  0  0  0  0  0
  -35.6052  -75.2076    1.0915 C   0  0  0  0  0  0  0  0  0  0  0  0
  -35.7318  -74.3391    0.0225 C   0  0  0  0  0  0  0  0  0  0  0  0
  -36.1502  -73.0278    0.1842 C   0  0  0  0  0  0  0  0  0  0  0  0
  -36.4281  -72.6434    1.4454 N   0  0  0  0  0  0  0  0  0  0  0  0
  -36.3144  -73.4605    2.4940 C   0  0  0  0  0  0  0  0  0  0  0  0
  1  2  1  0
  2  3  2  0
  3  4  1  0
  3  5  1  0
  5  6  1  0
  6  7  1  0
  7  8  1  0
  8  9  1  0
  9 10  1  0
  5 11  2  0
 11 12  1  0
 11 13  1  0
 13 14  2  0
 14 15  1  0
 15 16  2  0
 16 17  1  0
 17 18  2  0
 18  2  1  0
 10  6  1  0
 18 13  1  0
M  CHG  2   1  -1   2   1
M  END
>  <shape_align_shape_tanimoto>  (3) 
0.61855018167514519

>  <shape_align_color_tanimoto>  (3) 
0.060797355035396287

>  <metric>  (3) 
combo

>  <metric_score>  (3) 
0.340

>  <template_pid>  (3) 
3LP1

>  <template_shape_score>  (3) 
0.619

>  <template_color_score>  (3) 
0.061

>  <template_combo_score>  (3) 
0.340

$$$$
