6MHD_shape_pose
     RDKit          3D

 23 25  0  0  0  0  0  0  0  0999 V2000
   -1.7348    4.4808   23.6784 C   0  0  0  0  0  0  0  0  0  0  0  0
   -2.3086    5.0399   24.9539 C   0  0  0  0  0  0  0  0  0  0  0  0
   -2.4968    6.4874   24.9356 C   0  0  0  0  0  0  0  0  0  0  0  0
   -1.4514    7.2108   25.1026 O   0  0  0  0  0  0  0  0  0  0  0  0
   -3.7049    7.1787   24.7530 N   0  0  0  0  0  0  0  0  0  0  0  0
   -4.9953    6.5461   24.5730 C   0  0  0  0  0  0  0  0  0  0  0  0
   -5.7270    6.3093   25.8312 C   0  0  0  0  0  0  0  0  0  0  0  0
   -5.7469    5.2153   26.6703 C   0  0  0  0  0  0  0  0  0  0  0  0
   -6.6019    5.5102   27.7188 C   0  0  0  0  0  0  0  0  0  0  0  0
   -6.9675    4.6549   28.8919 C   0  0  0  0  0  0  0  0  0  0  0  0
   -7.0487    6.7512   27.4625 N   0  0  0  0  0  0  0  0  0  0  0  0
   -6.5415    7.2200   26.3639 O   0  0  0  0  0  0  0  0  0  0  0  0
   -3.5824    8.6354   24.7634 C   0  0  0  0  0  0  0  0  0  0  0  0
   -2.8204    9.4631   24.8746 N   0  0  0  0  0  0  0  0  0  0  0  0
   -2.9019   10.7687   24.8554 C   0  0  0  0  0  0  0  0  0  0  0  0
   -1.8022   11.7189   25.0180 C   0  0  0  0  0  0  0  0  0  0  0  0
   -2.0144   13.0798   24.9794 C   0  0  0  0  0  0  0  0  0  0  0  0
   -1.0118   14.0139   25.1280 C   0  0  0  0  0  0  0  0  0  0  0  0
    0.2931   13.5666   25.3289 C   0  0  0  0  0  0  0  0  0  0  0  0
    0.5437   12.2109   25.3733 C   0  0  0  0  0  0  0  0  0  0  0  0
   -0.4912   11.3119   25.2196 C   0  0  0  0  0  0  0  0  0  0  0  0
   -4.2219   11.2171   24.6527 C   0  0  0  0  0  0  0  0  0  0  0  0
   -5.1784    9.6322   24.5160 S   0  0  0  0  0  0  0  0  0  0  0  0
  1  2  1  0
  2  3  1  0
  3  4  2  0
  3  5  1  0
  5  6  1  0
  6  7  1  0
  7  8  2  0
  8  9  1  0
  9 10  1  0
  9 11  2  0
 11 12  1  0
  5 13  1  0
 13 14  2  0
 14 15  1  0
 15 16  1  0
 16 17  2  0
 17 18  1  0
 18 19  2  0
 19 20  1  0
 20 21  2  0
 15 22  2  0
 22 23  1  0
 12  7  1  0
 23 13  1  0
 21 16  1  0
M  END
>  <shape_align_shape_tanimoto>  (1) 
0.47511153211516238

>  <shape_align_color_tanimoto>  (1) 
0.021356308530146886

>  <metric>  (1) 
shape

>  <metric_score>  (1) 
0.475

>  <template_pid>  (1) 
6MHD

>  <template_shape_score>  (1) 
0.475

>  <template_color_score>  (1) 
0.021

>  <template_combo_score>  (1) 
0.248

$$$$
6MHD_color_pose
     RDKit          3D

 23 25  0  0  0  0  0  0  0  0999 V2000
   -2.1763   14.2505   21.6522 C   0  0  0  0  0  0  0  0  0  0  0  0
   -3.2378   14.2636   22.7496 C   0  0  0  0  0  0  0  0  0  0  0  0
   -3.1117   12.9899   23.5004 C   0  0  0  0  0  0  0  0  0  0  0  0
   -3.6552   11.9621   23.0115 O   0  0  0  0  0  0  0  0  0  0  0  0
   -2.4270   12.8478   24.7212 N   0  0  0  0  0  0  0  0  0  0  0  0
   -1.7541   13.8999   25.4159 C   0  0  0  0  0  0  0  0  0  0  0  0
   -0.3183   14.0295   25.0010 C   0  0  0  0  0  0  0  0  0  0  0  0
    0.7908   13.3999   25.5555 C   0  0  0  0  0  0  0  0  0  0  0  0
    1.9010   13.8186   24.8526 C   0  0  0  0  0  0  0  0  0  0  0  0
    3.2950   13.3859   25.1192 C   0  0  0  0  0  0  0  0  0  0  0  0
    1.4335   14.6725   23.9133 N   0  0  0  0  0  0  0  0  0  0  0  0
    0.1383   14.7703   24.0304 O   0  0  0  0  0  0  0  0  0  0  0  0
   -2.4169   11.5305   25.3010 C   0  0  0  0  0  0  0  0  0  0  0  0
   -2.9420   10.4711   24.8554 N   0  0  0  0  0  0  0  0  0  0  0  0
   -2.8756    9.3139   25.4662 C   0  0  0  0  0  0  0  0  0  0  0  0
   -3.5147    8.0914   24.8976 C   0  0  0  0  0  0  0  0  0  0  0  0
   -4.2016    8.1433   23.7012 C   0  0  0  0  0  0  0  0  0  0  0  0
   -4.8066    7.0200   23.1458 C   0  0  0  0  0  0  0  0  0  0  0  0
   -4.7246    5.8125   23.8010 C   0  0  0  0  0  0  0  0  0  0  0  0
   -4.0385    5.7812   24.9874 C   0  0  0  0  0  0  0  0  0  0  0  0
   -3.4336    6.8821   25.5522 C   0  0  0  0  0  0  0  0  0  0  0  0
   -2.1996    9.2747   26.6422 C   0  0  0  0  0  0  0  0  0  0  0  0
   -1.6545   11.0490   26.8149 S   0  0  0  0  0  0  0  0  0  0  0  0
  1  2  1  0
  2  3  1  0
  3  4  2  0
  3  5  1  0
  5  6  1  0
  6  7  1  0
  7  8  2  0
  8  9  1  0
  9 10  1  0
  9 11  2  0
 11 12  1  0
  5 13  1  0
 13 14  2  0
 14 15  1  0
 15 16  1  0
 16 17  2  0
 17 18  1  0
 18 19  2  0
 19 20  1  0
 20 21  2  0
 15 22  2  0
 22 23  1  0
 12  7  1  0
 23 13  1  0
 21 16  1  0
M  END
>  <shape_align_shape_tanimoto>  (2) 
0.41427016735687183

>  <shape_align_color_tanimoto>  (2) 
0.10659002163304408

>  <metric>  (2) 
color

>  <metric_score>  (2) 
0.107

>  <template_pid>  (2) 
6MHD

>  <template_shape_score>  (2) 
0.414

>  <template_color_score>  (2) 
0.107

>  <template_combo_score>  (2) 
0.260

$$$$
6MHD_combo_pose
     RDKit          3D

 23 25  0  0  0  0  0  0  0  0999 V2000
   -5.5333   13.0132   23.9357 C   0  0  0  0  0  0  0  0  0  0  0  0
   -4.0911   12.8949   23.4374 C   0  0  0  0  0  0  0  0  0  0  0  0
   -3.1831   13.3495   24.5064 C   0  0  0  0  0  0  0  0  0  0  0  0
   -3.1022   14.5928   24.7070 O   0  0  0  0  0  0  0  0  0  0  0  0
   -2.4455   12.4008   25.2597 N   0  0  0  0  0  0  0  0  0  0  0  0
   -1.5467   12.8081   26.3227 C   0  0  0  0  0  0  0  0  0  0  0  0
   -0.2206   13.0156   25.7149 C   0  0  0  0  0  0  0  0  0  0  0  0
    0.3459   14.1458   25.1620 C   0  0  0  0  0  0  0  0  0  0  0  0
    1.6120   13.8144   24.7306 C   0  0  0  0  0  0  0  0  0  0  0  0
    2.6381   14.6426   24.0729 C   0  0  0  0  0  0  0  0  0  0  0  0
    1.7590   12.5064   25.0381 N   0  0  0  0  0  0  0  0  0  0  0  0
    0.6952   12.0602   25.6045 O   0  0  0  0  0  0  0  0  0  0  0  0
   -2.5917   10.9750   24.9627 C   0  0  0  0  0  0  0  0  0  0  0  0
   -3.1978   10.0567   25.2295 N   0  0  0  0  0  0  0  0  0  0  0  0
   -3.1574    8.8115   24.8201 C   0  0  0  0  0  0  0  0  0  0  0  0
   -4.0444    7.7300   25.2883 C   0  0  0  0  0  0  0  0  0  0  0  0
   -3.9219    6.4488   24.7953 C   0  0  0  0  0  0  0  0  0  0  0  0
   -4.7177    5.3954   25.1897 C   0  0  0  0  0  0  0  0  0  0  0  0
   -5.6969    5.6262   26.1322 C   0  0  0  0  0  0  0  0  0  0  0  0
   -5.8566    6.8911   26.6537 C   0  0  0  0  0  0  0  0  0  0  0  0
   -5.0302    7.9378   26.2304 C   0  0  0  0  0  0  0  0  0  0  0  0
   -2.1764    8.5732   23.8714 C   0  0  0  0  0  0  0  0  0  0  0  0
   -1.3934   10.2510   23.6743 S   0  0  0  0  0  0  0  0  0  0  0  0
  1  2  1  0
  2  3  1  0
  3  4  2  0
  3  5  1  0
  5  6  1  0
  6  7  1  0
  7  8  2  0
  8  9  1  0
  9 10  1  0
  9 11  2  0
 11 12  1  0
  5 13  1  0
 13 14  2  0
 14 15  1  0
 15 16  1  0
 16 17  2  0
 17 18  1  0
 18 19  2  0
 19 20  1  0
 20 21  2  0
 15 22  2  0
 22 23  1  0
 12  7  1  0
 23 13  1  0
 21 16  1  0
M  END
>  <shape_align_shape_tanimoto>  (3) 
0.42307140008666133

>  <shape_align_color_tanimoto>  (3) 
0.10657080746219651

>  <metric>  (3) 
combo

>  <metric_score>  (3) 
0.265

>  <template_pid>  (3) 
6MHD

>  <template_shape_score>  (3) 
0.423

>  <template_color_score>  (3) 
0.107

>  <template_combo_score>  (3) 
0.265

$$$$
