6HTH_shape_pose
     RDKit          3D

 27 29  0  0  0  0  0  0  0  0999 V2000
   42.5348   37.2774   83.5954 C   0  0  0  0  0  0  0  0  0  0  0  0
   43.0169   36.7899   84.8248 O   0  0  0  0  0  0  0  0  0  0  0  0
   43.8483   35.7148   84.9946 C   0  0  0  0  0  0  0  0  0  0  0  0
   44.3315   34.9527   83.9496 C   0  0  0  0  0  0  0  0  0  0  0  0
   45.1755   33.8679   84.1791 C   0  0  0  0  0  0  0  0  0  0  0  0
   45.5590   33.5157   85.4557 C   0  0  0  0  0  0  0  0  0  0  0  0
   46.4386   32.3913   85.7502 C   0  0  0  0  0  0  0  0  0  0  0  0
   46.7474   32.1301   86.9636 O   0  0  0  0  0  0  0  0  0  0  0  0
   46.9773   31.5582   84.7319 N   0  0  0  0  0  0  0  0  0  0  0  0
   47.7915   30.5288   85.1069 O   0  0  0  0  0  0  0  0  0  0  0  0
   45.0683   34.2859   86.4877 C   0  0  0  0  0  0  0  0  0  0  0  0
   44.2319   35.3628   86.2762 C   0  0  0  0  0  0  0  0  0  0  0  0
   43.7928   36.0782   87.4259 N   0  0  0  0  0  0  0  0  0  0  0  0
   44.5931   37.1689   87.8676 C   0  0  0  0  0  0  0  0  0  0  0  0
   45.6377   37.3972   87.1777 O   0  0  0  0  0  0  0  0  0  0  0  0
   44.2522   37.9817   89.0328 C   0  0  0  0  0  0  0  0  0  0  0  0
   43.1254   37.7583   89.8015 C   0  0  0  0  0  0  0  0  0  0  0  0
   42.8887   38.5848   90.8893 C   0  0  0  0  0  0  0  0  0  0  0  0
   43.7565   39.6126   91.2049 C   0  0  0  0  0  0  0  0  0  0  0  0
   43.5010   40.4827   92.3567 C   0  0  0  0  0  0  0  0  0  0  0  0
   43.9033   41.8146   92.3569 C   0  0  0  0  0  0  0  0  0  0  0  0
   43.6161   42.5484   93.4857 C   0  0  0  0  0  0  0  0  0  0  0  0
   42.9670   42.0093   94.5647 C   0  0  0  0  0  0  0  0  0  0  0  0
   42.5636   40.6874   94.5741 C   0  0  0  0  0  0  0  0  0  0  0  0
   42.8428   39.9201   93.4402 C   0  0  0  0  0  0  0  0  0  0  0  0
   44.8874   39.8508   90.4481 C   0  0  0  0  0  0  0  0  0  0  0  0
   45.1052   39.0138   89.3660 C   0  0  0  0  0  0  0  0  0  0  0  0
  1  2  1  0
  2  3  1  0
  3  4  2  0
  4  5  1  0
  5  6  2  0
  6  7  1  0
  7  8  2  0
  7  9  1  0
  9 10  1  0
  6 11  1  0
 11 12  2  0
 12 13  1  0
 13 14  1  0
 14 15  2  0
 14 16  1  0
 16 17  2  0
 17 18  1  0
 18 19  2  0
 19 20  1  0
 20 21  2  0
 21 22  1  0
 22 23  2  0
 23 24  1  0
 24 25  2  0
 19 26  1  0
 26 27  2  0
 12  3  1  0
 27 16  1  0
 25 20  1  0
M  END
>  <shape_align_shape_tanimoto>  (1) 
0.66004875334548363

>  <shape_align_color_tanimoto>  (1) 
0.027881525046197859

>  <metric>  (1) 
shape

>  <metric_score>  (1) 
0.660

>  <template_pid>  (1) 
6HTH

>  <template_shape_score>  (1) 
0.660

>  <template_color_score>  (1) 
0.028

>  <template_combo_score>  (1) 
0.344

$$$$
6HTH_color_pose
     RDKit          3D

 27 29  0  0  0  0  0  0  0  0999 V2000
   42.6706   36.5814   83.6620 C   0  0  0  0  0  0  0  0  0  0  0  0
   43.3671   36.3357   84.8254 O   0  0  0  0  0  0  0  0  0  0  0  0
   44.2035   35.2855   85.1008 C   0  0  0  0  0  0  0  0  0  0  0  0
   44.3653   34.3520   84.0751 C   0  0  0  0  0  0  0  0  0  0  0  0
   45.1777   33.2558   84.2397 C   0  0  0  0  0  0  0  0  0  0  0  0
   45.8142   33.1283   85.4509 C   0  0  0  0  0  0  0  0  0  0  0  0
   46.6879   31.9922   85.6870 C   0  0  0  0  0  0  0  0  0  0  0  0
   47.2966   31.8365   86.7932 O   0  0  0  0  0  0  0  0  0  0  0  0
   46.9174   30.9912   84.7084 N   0  0  0  0  0  0  0  0  0  0  0  0
   47.7520   29.9541   85.0054 O   0  0  0  0  0  0  0  0  0  0  0  0
   45.6534   34.0484   86.4578 C   0  0  0  0  0  0  0  0  0  0  0  0
   44.8312   35.1783   86.3202 C   0  0  0  0  0  0  0  0  0  0  0  0
   44.7313   36.0269   87.4068 N   0  0  0  0  0  0  0  0  0  0  0  0
   44.1694   37.3096   87.5217 C   0  0  0  0  0  0  0  0  0  0  0  0
   43.6639   37.8584   86.5484 O   0  0  0  0  0  0  0  0  0  0  0  0
   44.1475   38.0703   88.7909 C   0  0  0  0  0  0  0  0  0  0  0  0
   44.6743   37.5737   89.9610 C   0  0  0  0  0  0  0  0  0  0  0  0
   44.6361   38.3236   91.1444 C   0  0  0  0  0  0  0  0  0  0  0  0
   44.0673   39.5820   91.1640 C   0  0  0  0  0  0  0  0  0  0  0  0
   43.9994   40.4073   92.3662 C   0  0  0  0  0  0  0  0  0  0  0  0
   44.0451   41.7755   92.2296 C   0  0  0  0  0  0  0  0  0  0  0  0
   43.9877   42.6460   93.3029 C   0  0  0  0  0  0  0  0  0  0  0  0
   43.8790   42.0856   94.5660 C   0  0  0  0  0  0  0  0  0  0  0  0
   43.8332   40.7145   94.7042 C   0  0  0  0  0  0  0  0  0  0  0  0
   43.8897   39.8398   93.6412 C   0  0  0  0  0  0  0  0  0  0  0  0
   43.5354   40.0906   89.9956 C   0  0  0  0  0  0  0  0  0  0  0  0
   43.5871   39.3297   88.8452 C   0  0  0  0  0  0  0  0  0  0  0  0
  1  2  1  0
  2  3  1  0
  3  4  2  0
  4  5  1  0
  5  6  2  0
  6  7  1  0
  7  8  2  0
  7  9  1  0
  9 10  1  0
  6 11  1  0
 11 12  2  0
 12 13  1  0
 13 14  1  0
 14 15  2  0
 14 16  1  0
 16 17  2  0
 17 18  1  0
 18 19  2  0
 19 20  1  0
 20 21  2  0
 21 22  1  0
 22 23  2  0
 23 24  1  0
 24 25  2  0
 19 26  1  0
 26 27  2  0
 12  3  1  0
 27 16  1  0
 25 20  1  0
M  END
>  <shape_align_shape_tanimoto>  (2) 
0.60403962179780302

>  <shape_align_color_tanimoto>  (2) 
0.071439398363503534

>  <metric>  (2) 
color

>  <metric_score>  (2) 
0.071

>  <template_pid>  (2) 
6HTH

>  <template_shape_score>  (2) 
0.604

>  <template_color_score>  (2) 
0.071

>  <template_combo_score>  (2) 
0.338

$$$$
6HTH_combo_pose
     RDKit          3D

 27 29  0  0  0  0  0  0  0  0999 V2000
   42.4070   37.3378   83.6717 C   0  0  0  0  0  0  0  0  0  0  0  0
   42.9002   36.8665   84.9324 O   0  0  0  0  0  0  0  0  0  0  0  0
   43.7638   35.7740   84.9899 C   0  0  0  0  0  0  0  0  0  0  0  0
   44.1867   35.0952   83.8666 C   0  0  0  0  0  0  0  0  0  0  0  0
   45.0354   34.0324   84.0109 C   0  0  0  0  0  0  0  0  0  0  0  0
   45.4891   33.6080   85.2399 C   0  0  0  0  0  0  0  0  0  0  0  0
   46.3923   32.4659   85.3005 C   0  0  0  0  0  0  0  0  0  0  0  0
   46.7149   31.9179   84.2243 O   0  0  0  0  0  0  0  0  0  0  0  0
   46.9153   31.9537   86.5050 N   0  0  0  0  0  0  0  0  0  0  0  0
   47.7572   30.8780   86.4735 O   0  0  0  0  0  0  0  0  0  0  0  0
   45.0582   34.2957   86.3537 C   0  0  0  0  0  0  0  0  0  0  0  0
   44.1945   35.3841   86.2606 C   0  0  0  0  0  0  0  0  0  0  0  0
   43.7609   36.0820   87.4278 N   0  0  0  0  0  0  0  0  0  0  0  0
   44.5697   37.1757   87.8483 C   0  0  0  0  0  0  0  0  0  0  0  0
   45.5959   37.4038   87.1251 O   0  0  0  0  0  0  0  0  0  0  0  0
   44.2583   37.9876   89.0231 C   0  0  0  0  0  0  0  0  0  0  0  0
   43.1553   37.7635   89.8219 C   0  0  0  0  0  0  0  0  0  0  0  0
   42.9123   38.5752   90.9314 C   0  0  0  0  0  0  0  0  0  0  0  0
   43.7893   39.6023   91.2167 C   0  0  0  0  0  0  0  0  0  0  0  0
   43.6041   40.4953   92.3595 C   0  0  0  0  0  0  0  0  0  0  0  0
   44.7181   41.0389   92.9931 C   0  0  0  0  0  0  0  0  0  0  0  0
   44.5996   41.8902   94.0804 C   0  0  0  0  0  0  0  0  0  0  0  0
   43.3421   42.2071   94.5470 C   0  0  0  0  0  0  0  0  0  0  0  0
   42.2293   41.6768   93.9301 C   0  0  0  0  0  0  0  0  0  0  0  0
   42.3315   40.8208   92.8379 C   0  0  0  0  0  0  0  0  0  0  0  0
   44.9020   39.8357   90.4189 C   0  0  0  0  0  0  0  0  0  0  0  0
   45.1306   39.0249   89.3237 C   0  0  0  0  0  0  0  0  0  0  0  0
  1  2  1  0
  2  3  1  0
  3  4  2  0
  4  5  1  0
  5  6  2  0
  6  7  1  0
  7  8  2  0
  7  9  1  0
  9 10  1  0
  6 11  1  0
 11 12  2  0
 12 13  1  0
 13 14  1  0
 14 15  2  0
 14 16  1  0
 16 17  2  0
 17 18  1  0
 18 19  2  0
 19 20  1  0
 20 21  2  0
 21 22  1  0
 22 23  2  0
 23 24  1  0
 24 25  2  0
 19 26  1  0
 26 27  2  0
 12  3  1  0
 27 16  1  0
 25 20  1  0
M  END
>  <shape_align_shape_tanimoto>  (3) 
0.64896139984582146

>  <shape_align_color_tanimoto>  (3) 
0.044552350610494409

>  <metric>  (3) 
combo

>  <metric_score>  (3) 
0.347

>  <template_pid>  (3) 
6HTH

>  <template_shape_score>  (3) 
0.649

>  <template_color_score>  (3) 
0.045

>  <template_combo_score>  (3) 
0.347

$$$$
