3FT2_shape_pose
     RDKit          3D

 73 72  0  0  0  0  0  0  0  0999 V2000
   -8.1193   -4.5652   22.0714 C   0  0  0  0  0  0  0  0  0  0  0  0
   -7.0015   -3.5536   21.9343 C   0  0  0  0  0  0  0  0  0  0  0  0
   -6.5375   -3.1581   23.2817 C   0  0  0  0  0  0  0  0  0  0  0  0
   -7.3706   -2.3811   21.1178 C   0  0  0  0  0  0  0  0  0  0  0  0
   -6.3118   -1.3481   20.9296 C   0  0  2  0  0  0  0  0  0  0  0  0
   -5.1591   -1.9481   20.3053 N   0  0  0  0  0  0  0  0  0  0  0  0
   -4.6017   -1.3308   19.1445 C   0  0  0  0  0  0  0  0  0  0  0  0
   -5.1880   -0.2733   18.7932 O   0  0  0  0  0  0  0  0  0  0  0  0
   -3.4864   -1.8203   18.3981 C   0  0  2  0  0  0  0  0  0  0  0  0
   -3.9337   -2.5178   17.1314 C   0  0  0  0  0  0  0  0  0  0  0  0
   -4.6948   -1.8079   16.1255 C   0  0  0  0  0  0  0  0  0  0  0  0
   -6.0596   -1.2990   16.4248 C   0  0  0  0  0  0  0  0  0  0  0  0
   -4.8142   -2.7309   14.9029 C   0  0  0  0  0  0  0  0  0  0  0  0
   -2.7277   -2.7938   19.1884 N   0  0  0  0  0  0  0  0  0  0  0  0
   -1.4704   -3.2777   18.7578 C   0  0  0  0  0  0  0  0  0  0  0  0
   -0.9483   -2.9274   17.6555 O   0  0  0  0  0  0  0  0  0  0  0  0
   -0.6509   -4.2276   19.5505 C   0  0  2  0  0  0  0  0  0  0  0  0
   -0.0395   -3.4475   20.7096 C   0  0  0  0  0  0  0  0  0  0  0  0
    0.7668   -4.3391   21.5266 C   0  0  0  0  0  0  0  0  0  0  0  0
    2.0029   -4.4066   21.4100 O   0  0  0  0  0  0  0  0  0  0  0  0
    0.1436   -5.1334   22.4606 O   0  0  0  0  0  0  0  0  0  0  0  0
    0.3417   -4.7976   18.6925 N   0  0  0  0  0  0  0  0  0  0  0  0
    0.9875   -6.0542   18.9263 C   0  0  0  0  0  0  0  0  0  0  0  0
    0.7635   -6.7467   19.9400 O   0  0  0  0  0  0  0  0  0  0  0  0
    1.9398   -6.5079   17.9184 C   0  0  2  0  0  0  0  0  0  0  0  0
    3.2761   -5.7635   18.0941 C   0  0  0  0  0  0  0  0  0  0  0  0
    3.8740   -6.0280   19.4081 C   0  0  0  0  0  0  0  0  0  0  0  0
    4.9114   -5.4014   19.7115 O   0  0  0  0  0  0  0  0  0  0  0  0
    3.3298   -6.9260   20.2846 O   0  0  0  0  0  0  0  0  0  0  0  0
    1.4702   -6.2329   16.5793 N   0  0  0  0  0  0  0  0  0  0  0  0
    2.0903   -6.6602   15.4079 C   0  0  0  0  0  0  0  0  0  0  0  0
    3.1724   -7.3001   15.4363 O   0  0  0  0  0  0  0  0  0  0  0  0
    1.5244   -6.3961   14.0684 C   0  0  2  0  0  0  0  0  0  0  0  0
    2.1772   -5.2065   13.4043 C   0  0  0  0  0  0  0  0  0  0  0  0
    3.6307   -5.4443   13.2299 C   0  0  0  0  0  0  0  0  0  0  0  0
    4.3274   -4.2949   12.5599 C   0  0  0  0  0  0  0  0  0  0  0  0
    4.2290   -3.0624   13.2900 N   0  0  0  0  0  0  0  0  0  0  0  0
    4.7336   -2.9471   14.6050 C   0  0  0  0  0  0  0  0  0  0  0  0
    4.5804   -1.6734   15.2469 N   0  0  0  0  0  0  0  0  0  0  0  0
    5.2841   -3.8931   15.1874 O   0  0  0  0  0  0  0  0  0  0  0  0
    0.0846   -6.1985   14.1704 N   0  0  0  0  0  0  0  0  0  0  0  0
   -0.6890   -6.9881   13.2781 C   0  0  0  0  0  0  0  0  0  0  0  0
   -0.1349   -7.7718   12.4382 O   0  0  0  0  0  0  0  0  0  0  0  0
   -2.1689   -6.9889   13.2346 C   0  0  2  0  0  0  0  0  0  0  0  0
   -2.6135   -6.3928   11.9468 C   0  0  0  0  0  0  0  0  0  0  0  0
   -4.0740   -6.3163   11.7129 C   0  0  0  0  0  0  0  0  0  0  0  0
   -4.7241   -7.6574   11.7521 C   0  0  0  0  0  0  0  0  0  0  0  0
   -4.8131   -5.3698   12.5914 C   0  0  0  0  0  0  0  0  0  0  0  0
   -2.7403   -6.3067   14.3417 N   0  0  0  0  0  0  0  0  0  0  0  0
   -3.5324   -7.1205   15.2243 C   0  0  0  0  0  0  0  0  0  0  0  0
   -3.6798   -8.3658   14.9514 O   0  0  0  0  0  0  0  0  0  0  0  0
   -4.2022   -6.6569   16.4253 C   0  0  1  0  0  0  0  0  0  0  0  0
   -5.0556   -7.7592   16.8694 N   0  0  0  0  0  0  0  0  0  0  0  0
   -3.2387   -6.4004   17.5598 C   0  0  0  0  0  0  0  0  0  0  0  0
   -2.5134   -7.7170   17.8538 C   0  0  0  0  0  0  0  0  0  0  0  0
   -4.0552   -6.1415   18.8043 C   0  0  0  0  0  0  0  0  0  0  0  0
   -5.9974   -0.5261   22.1038 C   0  0  0  0  0  0  0  0  0  0  0  0
   -4.8660   -0.4136   22.6111 O   0  0  0  0  0  0  0  0  0  0  0  0
   -7.0608    0.1932   22.6896 N   0  0  0  0  0  0  0  0  0  0  0  0
   -6.9497    1.0497   23.8182 C   0  0  1  0  0  0  0  0  0  0  0  0
   -6.9778    2.5096   23.4066 C   0  0  0  0  0  0  0  0  0  0  0  0
   -8.2534    2.8656   22.6931 C   0  0  0  0  0  0  0  0  0  0  0  0
   -8.2303    4.2987   22.2951 C   0  0  0  0  0  0  0  0  0  0  0  0
   -8.5528    5.1747   23.1337 O   0  0  0  0  0  0  0  0  0  0  0  0
   -7.8461    4.6448   20.9898 O   0  0  0  0  0  0  0  0  0  0  0  0
   -8.0324    0.8299   24.7745 C   0  0  0  0  0  0  0  0  0  0  0  0
   -8.0465    1.5607   25.8074 O   0  0  0  0  0  0  0  0  0  0  0  0
   -9.0608   -0.1213   24.6549 N   0  0  0  0  0  0  0  0  0  0  0  0
  -10.0644   -0.2166   25.6989 C   0  0  1  0  0  0  0  0  0  0  0  0
  -11.4269    0.1261   25.1684 C   0  0  0  0  0  0  0  0  0  0  0  0
   -9.9944   -1.5899   26.2574 C   0  0  0  0  0  0  0  0  0  0  0  0
  -10.8664   -2.4487   25.9990 O   0  0  0  0  0  0  0  0  0  0  0  0
   -8.9040   -1.8506   27.0767 O   0  0  0  0  0  0  0  0  0  0  0  0
  1  2  1  0
  2  3  1  0
  2  4  1  0
  5  4  1  1
  5  6  1  0
  6  7  1  0
  7  8  2  0
  7  9  1  0
  9 10  1  6
 10 11  1  0
 11 12  1  0
 11 13  1  0
  9 14  1  0
 14 15  1  0
 15 16  2  0
 15 17  1  0
 17 18  1  1
 18 19  1  0
 19 20  2  0
 19 21  1  0
 17 22  1  0
 22 23  1  0
 23 24  2  0
 23 25  1  0
 25 26  1  1
 26 27  1  0
 27 28  2  0
 27 29  1  0
 25 30  1  0
 30 31  1  0
 31 32  2  0
 31 33  1  0
 33 34  1  1
 34 35  1  0
 35 36  1  0
 36 37  1  0
 37 38  1  0
 38 39  1  0
 38 40  2  0
 33 41  1  0
 41 42  1  0
 42 43  2  0
 42 44  1  0
 44 45  1  6
 45 46  1  0
 46 47  1  0
 46 48  1  0
 44 49  1  0
 49 50  1  0
 50 51  2  0
 50 52  1  0
 52 53  1  1
 52 54  1  0
 54 55  1  0
 54 56  1  0
  5 57  1  0
 57 58  2  0
 57 59  1  0
 59 60  1  0
 60 61  1  6
 61 62  1  0
 62 63  1  0
 63 64  2  0
 63 65  1  0
 60 66  1  0
 66 67  2  0
 66 68  1  0
 68 69  1  0
 69 70  1  6
 69 71  1  0
 71 72  2  0
 71 73  1  0
M  CHG  5  21  -1  29  -1  53   1  65  -1  73  -1
M  END
>  <shape_align_shape_tanimoto>  (1) 
0.38062450543212722

>  <shape_align_color_tanimoto>  (1) 
0.018437414776811514

>  <metric>  (1) 
shape

>  <metric_score>  (1) 
0.381

>  <template_pid>  (1) 
3FT2

>  <template_shape_score>  (1) 
0.381

>  <template_color_score>  (1) 
0.018

>  <template_combo_score>  (1) 
0.200

$$$$
3FT2_color_pose
     RDKit          3D

 73 72  0  0  0  0  0  0  0  0999 V2000
   -2.7900    2.1501   19.3897 C   0  0  0  0  0  0  0  0  0  0  0  0
   -3.7730    1.3579   18.5957 C   0  0  0  0  0  0  0  0  0  0  0  0
   -4.1952    2.0951   17.3369 C   0  0  0  0  0  0  0  0  0  0  0  0
   -4.9451    0.8987   19.4307 C   0  0  0  0  0  0  0  0  0  0  0  0
   -4.4604    0.0105   20.5206 C   0  0  2  0  0  0  0  0  0  0  0  0
   -3.8101   -1.2027   20.0531 N   0  0  0  0  0  0  0  0  0  0  0  0
   -2.4704   -1.5643   20.3002 C   0  0  0  0  0  0  0  0  0  0  0  0
   -1.7597   -0.8011   20.9748 O   0  0  0  0  0  0  0  0  0  0  0  0
   -1.9199   -2.8024   19.7761 C   0  0  2  0  0  0  0  0  0  0  0  0
   -1.0480   -2.7162   18.5548 C   0  0  0  0  0  0  0  0  0  0  0  0
    0.1690   -1.8693   18.6296 C   0  0  0  0  0  0  0  0  0  0  0  0
    0.0288   -0.4086   18.8429 C   0  0  0  0  0  0  0  0  0  0  0  0
    1.2000   -2.4731   19.5965 C   0  0  0  0  0  0  0  0  0  0  0  0
   -2.9957   -3.7663   19.5216 N   0  0  0  0  0  0  0  0  0  0  0  0
   -2.9878   -4.8116   18.6121 C   0  0  0  0  0  0  0  0  0  0  0  0
   -2.0443   -5.0760   17.7933 O   0  0  0  0  0  0  0  0  0  0  0  0
   -4.1272   -5.8108   18.4708 C   0  0  2  0  0  0  0  0  0  0  0  0
   -4.0227   -6.7020   19.7295 C   0  0  0  0  0  0  0  0  0  0  0  0
   -5.0417   -7.7064   19.7643 C   0  0  0  0  0  0  0  0  0  0  0  0
   -4.7982   -8.9030   19.4649 O   0  0  0  0  0  0  0  0  0  0  0  0
   -6.3371   -7.3940   20.1329 O   0  0  0  0  0  0  0  0  0  0  0  0
   -3.9767   -6.5312   17.2555 N   0  0  0  0  0  0  0  0  0  0  0  0
   -4.8885   -7.3526   16.5705 C   0  0  0  0  0  0  0  0  0  0  0  0
   -6.0091   -7.5466   17.0580 O   0  0  0  0  0  0  0  0  0  0  0  0
   -4.3986   -7.9385   15.2768 C   0  0  2  0  0  0  0  0  0  0  0  0
   -3.2728   -8.9252   15.7047 C   0  0  0  0  0  0  0  0  0  0  0  0
   -3.8869   -9.9733   16.5726 C   0  0  0  0  0  0  0  0  0  0  0  0
   -5.1255   -9.9985   16.6290 O   0  0  0  0  0  0  0  0  0  0  0  0
   -3.0557  -10.8383   17.2528 O   0  0  0  0  0  0  0  0  0  0  0  0
   -3.8265   -6.9351   14.4363 N   0  0  0  0  0  0  0  0  0  0  0  0
   -3.4064   -7.0992   13.0947 C   0  0  0  0  0  0  0  0  0  0  0  0
   -3.4735   -8.2477   12.6028 O   0  0  0  0  0  0  0  0  0  0  0  0
   -2.9140   -5.9680   12.3114 C   0  0  2  0  0  0  0  0  0  0  0  0
   -1.4833   -5.6267   12.7851 C   0  0  0  0  0  0  0  0  0  0  0  0
   -0.5585   -6.7855   12.6226 C   0  0  0  0  0  0  0  0  0  0  0  0
    0.8661   -6.4290   13.0538 C   0  0  0  0  0  0  0  0  0  0  0  0
    0.9053   -6.0114   14.4293 N   0  0  0  0  0  0  0  0  0  0  0  0
    2.0643   -5.6074   15.1266 C   0  0  0  0  0  0  0  0  0  0  0  0
    2.0205   -5.2040   16.5111 N   0  0  0  0  0  0  0  0  0  0  0  0
    3.1882   -5.5960   14.5187 O   0  0  0  0  0  0  0  0  0  0  0  0
   -3.7018   -4.7662   12.6556 N   0  0  0  0  0  0  0  0  0  0  0  0
   -3.8811   -3.6990   11.7126 C   0  0  0  0  0  0  0  0  0  0  0  0
   -3.3513   -3.7072   10.5791 O   0  0  0  0  0  0  0  0  0  0  0  0
   -4.7695   -2.5089   12.1295 C   0  0  2  0  0  0  0  0  0  0  0  0
   -3.9893   -1.2840   12.3580 C   0  0  0  0  0  0  0  0  0  0  0  0
   -4.7924   -0.0838   12.7431 C   0  0  0  0  0  0  0  0  0  0  0  0
   -5.5708   -0.2205   14.0151 C   0  0  0  0  0  0  0  0  0  0  0  0
   -3.7950    1.0786   12.8745 C   0  0  0  0  0  0  0  0  0  0  0  0
   -5.4791   -2.9446   13.3413 N   0  0  0  0  0  0  0  0  0  0  0  0
   -6.7241   -3.6012   13.0884 C   0  0  0  0  0  0  0  0  0  0  0  0
   -7.1228   -3.7523   11.8763 O   0  0  0  0  0  0  0  0  0  0  0  0
   -7.6170   -4.1456   14.1276 C   0  0  1  0  0  0  0  0  0  0  0  0
   -7.3808   -3.6157   15.4334 N   0  0  0  0  0  0  0  0  0  0  0  0
   -9.0459   -3.9565   13.7032 C   0  0  0  0  0  0  0  0  0  0  0  0
   -9.3601   -2.5108   13.5177 C   0  0  0  0  0  0  0  0  0  0  0  0
  -10.0106   -4.5645   14.7063 C   0  0  0  0  0  0  0  0  0  0  0  0
   -5.5764   -0.4464   21.4157 C   0  0  0  0  0  0  0  0  0  0  0  0
   -5.7877   -1.6599   21.6658 O   0  0  0  0  0  0  0  0  0  0  0  0
   -6.4369    0.5374   22.0062 N   0  0  0  0  0  0  0  0  0  0  0  0
   -7.5038    0.0499   22.8605 C   0  0  1  0  0  0  0  0  0  0  0  0
   -7.3011    0.6349   24.2329 C   0  0  0  0  0  0  0  0  0  0  0  0
   -8.3177    0.2739   25.2587 C   0  0  0  0  0  0  0  0  0  0  0  0
   -7.9588    0.9129   26.5774 C   0  0  0  0  0  0  0  0  0  0  0  0
   -6.8776    1.5901   26.5742 O   0  0  0  0  0  0  0  0  0  0  0  0
   -8.7478    0.7715   27.7044 O   0  0  0  0  0  0  0  0  0  0  0  0
   -8.8338    0.3472   22.3355 C   0  0  0  0  0  0  0  0  0  0  0  0
   -9.8366   -0.1099   22.9589 O   0  0  0  0  0  0  0  0  0  0  0  0
   -9.0965    1.1152   21.1672 N   0  0  0  0  0  0  0  0  0  0  0  0
  -10.5008    1.2904   20.7906 C   0  0  1  0  0  0  0  0  0  0  0  0
  -10.9331    2.7396   20.8738 C   0  0  0  0  0  0  0  0  0  0  0  0
  -10.5853    0.8739   19.3701 C   0  0  0  0  0  0  0  0  0  0  0  0
  -10.6217    1.7390   18.4552 O   0  0  0  0  0  0  0  0  0  0  0  0
  -10.6242   -0.4905   19.0869 O   0  0  0  0  0  0  0  0  0  0  0  0
  1  2  1  0
  2  3  1  0
  2  4  1  0
  5  4  1  6
  5  6  1  0
  6  7  1  0
  7  8  2  0
  7  9  1  0
  9 10  1  6
 10 11  1  0
 11 12  1  0
 11 13  1  0
  9 14  1  0
 14 15  1  0
 15 16  2  0
 15 17  1  0
 17 18  1  1
 18 19  1  0
 19 20  2  0
 19 21  1  0
 17 22  1  0
 22 23  1  0
 23 24  2  0
 23 25  1  0
 25 26  1  1
 26 27  1  0
 27 28  2  0
 27 29  1  0
 25 30  1  0
 30 31  1  0
 31 32  2  0
 31 33  1  0
 33 34  1  1
 34 35  1  0
 35 36  1  0
 36 37  1  0
 37 38  1  0
 38 39  1  0
 38 40  2  0
 33 41  1  0
 41 42  1  0
 42 43  2  0
 42 44  1  0
 44 45  1  1
 45 46  1  0
 46 47  1  0
 46 48  1  0
 44 49  1  0
 49 50  1  0
 50 51  2  0
 50 52  1  0
 52 53  1  1
 52 54  1  0
 54 55  1  0
 54 56  1  0
  5 57  1  0
 57 58  2  0
 57 59  1  0
 59 60  1  0
 60 61  1  1
 61 62  1  0
 62 63  1  0
 63 64  2  0
 63 65  1  0
 60 66  1  0
 66 67  2  0
 66 68  1  0
 68 69  1  0
 69 70  1  6
 69 71  1  0
 71 72  2  0
 71 73  1  0
M  CHG  5  21  -1  29  -1  53   1  65  -1  73  -1
M  END
>  <shape_align_shape_tanimoto>  (2) 
0.3013682932847993

>  <shape_align_color_tanimoto>  (2) 
0.06527539043637498

>  <metric>  (2) 
color

>  <metric_score>  (2) 
0.065

>  <template_pid>  (2) 
3FT2

>  <template_shape_score>  (2) 
0.301

>  <template_color_score>  (2) 
0.065

>  <template_combo_score>  (2) 
0.183

$$$$
3FT2_combo_pose
     RDKit          3D

 73 72  0  0  0  0  0  0  0  0999 V2000
   -2.0965   -1.3306   17.0504 C   0  0  0  0  0  0  0  0  0  0  0  0
   -3.3556   -2.0499   17.5308 C   0  0  0  0  0  0  0  0  0  0  0  0
   -4.4992   -1.0940   17.3803 C   0  0  0  0  0  0  0  0  0  0  0  0
   -3.0974   -2.5426   18.9115 C   0  0  0  0  0  0  0  0  0  0  0  0
   -4.1906   -3.2705   19.5875 C   0  0  2  0  0  0  0  0  0  0  0  0
   -4.6400   -4.4645   18.8917 N   0  0  0  0  0  0  0  0  0  0  0  0
   -4.8959   -5.6209   19.6346 C   0  0  0  0  0  0  0  0  0  0  0  0
   -4.7301   -5.5113   20.9152 O   0  0  0  0  0  0  0  0  0  0  0  0
   -5.3334   -6.9345   19.1759 C   0  0  2  0  0  0  0  0  0  0  0  0
   -5.2223   -8.0298   20.1708 C   0  0  0  0  0  0  0  0  0  0  0  0
   -3.8425   -8.3096   20.6899 C   0  0  0  0  0  0  0  0  0  0  0  0
   -3.9734   -9.4590   21.6818 C   0  0  0  0  0  0  0  0  0  0  0  0
   -2.8980   -8.7566   19.6011 C   0  0  0  0  0  0  0  0  0  0  0  0
   -5.0528   -7.3585   17.8562 N   0  0  0  0  0  0  0  0  0  0  0  0
   -4.0031   -7.0017   17.0010 C   0  0  0  0  0  0  0  0  0  0  0  0
   -3.0669   -6.2074   17.2418 O   0  0  0  0  0  0  0  0  0  0  0  0
   -3.9401   -7.6243   15.6096 C   0  0  2  0  0  0  0  0  0  0  0  0
   -3.8949   -9.1281   15.7560 C   0  0  0  0  0  0  0  0  0  0  0  0
   -3.8264   -9.8206   14.4751 C   0  0  0  0  0  0  0  0  0  0  0  0
   -3.7800   -9.3036   13.3373 O   0  0  0  0  0  0  0  0  0  0  0  0
   -3.8096  -11.2295   14.5001 O   0  0  0  0  0  0  0  0  0  0  0  0
   -2.7644   -7.1276   14.9212 N   0  0  0  0  0  0  0  0  0  0  0  0
   -2.8330   -6.4575   13.6486 C   0  0  0  0  0  0  0  0  0  0  0  0
   -3.9917   -6.3200   13.1762 O   0  0  0  0  0  0  0  0  0  0  0  0
   -1.5917   -6.0261   13.0358 C   0  0  2  0  0  0  0  0  0  0  0  0
   -1.1251   -7.1852   12.1102 C   0  0  0  0  0  0  0  0  0  0  0  0
   -2.1383   -7.3843   11.0778 C   0  0  0  0  0  0  0  0  0  0  0  0
   -3.1485   -6.6971   10.8542 O   0  0  0  0  0  0  0  0  0  0  0  0
   -1.9568   -8.4934   10.2234 O   0  0  0  0  0  0  0  0  0  0  0  0
   -0.4823   -5.7490   13.9437 N   0  0  0  0  0  0  0  0  0  0  0  0
    0.6311   -5.1037   13.3571 C   0  0  0  0  0  0  0  0  0  0  0  0
    0.6107   -4.8297   12.1066 O   0  0  0  0  0  0  0  0  0  0  0  0
    1.8726   -4.7001   14.0715 C   0  0  2  0  0  0  0  0  0  0  0  0
    2.9146   -5.6493   13.5646 C   0  0  0  0  0  0  0  0  0  0  0  0
    4.2991   -5.5463   14.0154 C   0  0  0  0  0  0  0  0  0  0  0  0
    4.9830   -4.2639   13.6825 C   0  0  0  0  0  0  0  0  0  0  0  0
    4.4893   -3.0968   14.3256 N   0  0  0  0  0  0  0  0  0  0  0  0
    5.1412   -1.8481   13.9459 C   0  0  0  0  0  0  0  0  0  0  0  0
    4.7479   -0.6113   14.5120 N   0  0  0  0  0  0  0  0  0  0  0  0
    6.0694   -1.9061   13.0961 O   0  0  0  0  0  0  0  0  0  0  0  0
    1.7320   -4.6242   15.4674 N   0  0  0  0  0  0  0  0  0  0  0  0
    1.9320   -5.5908   16.4721 C   0  0  0  0  0  0  0  0  0  0  0  0
    2.2653   -6.7633   16.2818 O   0  0  0  0  0  0  0  0  0  0  0  0
    1.7213   -5.1406   17.8788 C   0  0  2  0  0  0  0  0  0  0  0  0
    2.5737   -3.9136   18.1701 C   0  0  0  0  0  0  0  0  0  0  0  0
    4.0344   -4.1000   18.0054 C   0  0  0  0  0  0  0  0  0  0  0  0
    4.5936   -5.1562   18.9179 C   0  0  0  0  0  0  0  0  0  0  0  0
    4.7160   -2.7755   18.3602 C   0  0  0  0  0  0  0  0  0  0  0  0
    1.8231   -6.1353   18.8840 N   0  0  0  0  0  0  0  0  0  0  0  0
    0.8091   -6.1197   19.9151 C   0  0  0  0  0  0  0  0  0  0  0  0
   -0.1189   -5.2398   19.8907 O   0  0  0  0  0  0  0  0  0  0  0  0
    0.7617   -7.0753   21.0372 C   0  0  1  0  0  0  0  0  0  0  0  0
    1.8016   -8.1134   20.9405 N   0  0  0  0  0  0  0  0  0  0  0  0
    1.0383   -6.3981   22.3659 C   0  0  0  0  0  0  0  0  0  0  0  0
    2.4196   -5.7682   22.3768 C   0  0  0  0  0  0  0  0  0  0  0  0
    0.0463   -5.3524   22.7436 C   0  0  0  0  0  0  0  0  0  0  0  0
   -5.3573   -2.3977   19.9835 C   0  0  0  0  0  0  0  0  0  0  0  0
   -6.5326   -2.6833   19.6343 O   0  0  0  0  0  0  0  0  0  0  0  0
   -5.0507   -1.2516   20.7700 N   0  0  0  0  0  0  0  0  0  0  0  0
   -6.1518   -0.3765   21.2028 C   0  0  1  0  0  0  0  0  0  0  0  0
   -6.1835   -0.5679   22.7261 C   0  0  0  0  0  0  0  0  0  0  0  0
   -7.2614    0.2450   23.3780 C   0  0  0  0  0  0  0  0  0  0  0  0
   -7.2478   -0.0117   24.8564 C   0  0  0  0  0  0  0  0  0  0  0  0
   -6.3760   -0.8387   25.2914 O   0  0  0  0  0  0  0  0  0  0  0  0
   -8.1224    0.6028   25.7266 O   0  0  0  0  0  0  0  0  0  0  0  0
   -5.9028    1.0440   20.8647 C   0  0  0  0  0  0  0  0  0  0  0  0
   -6.7550    1.9619   21.0533 O   0  0  0  0  0  0  0  0  0  0  0  0
   -4.6618    1.4618   20.3012 N   0  0  0  0  0  0  0  0  0  0  0  0
   -4.4315    2.8633   19.9846 C   0  0  1  0  0  0  0  0  0  0  0  0
   -3.2620    3.3021   20.8402 C   0  0  0  0  0  0  0  0  0  0  0  0
   -4.1228    3.0877   18.5664 C   0  0  0  0  0  0  0  0  0  0  0  0
   -2.9061    3.2719   18.2276 O   0  0  0  0  0  0  0  0  0  0  0  0
   -5.1459    3.0984   17.6041 O   0  0  0  0  0  0  0  0  0  0  0  0
  1  2  1  0
  2  3  1  0
  2  4  1  0
  5  4  1  6
  5  6  1  0
  6  7  1  0
  7  8  2  0
  7  9  1  0
  9 10  1  1
 10 11  1  0
 11 12  1  0
 11 13  1  0
  9 14  1  0
 14 15  1  0
 15 16  2  0
 15 17  1  0
 17 18  1  1
 18 19  1  0
 19 20  2  0
 19 21  1  0
 17 22  1  0
 22 23  1  0
 23 24  2  0
 23 25  1  0
 25 26  1  6
 26 27  1  0
 27 28  2  0
 27 29  1  0
 25 30  1  0
 30 31  1  0
 31 32  2  0
 31 33  1  0
 33 34  1  1
 34 35  1  0
 35 36  1  0
 36 37  1  0
 37 38  1  0
 38 39  1  0
 38 40  2  0
 33 41  1  0
 41 42  1  0
 42 43  2  0
 42 44  1  0
 44 45  1  1
 45 46  1  0
 46 47  1  0
 46 48  1  0
 44 49  1  0
 49 50  1  0
 50 51  2  0
 50 52  1  0
 52 53  1  6
 52 54  1  0
 54 55  1  0
 54 56  1  0
  5 57  1  0
 57 58  2  0
 57 59  1  0
 59 60  1  0
 60 61  1  1
 61 62  1  0
 62 63  1  0
 63 64  2  0
 63 65  1  0
 60 66  1  0
 66 67  2  0
 66 68  1  0
 68 69  1  0
 69 70  1  1
 69 71  1  0
 71 72  2  0
 71 73  1  0
M  CHG  5  21  -1  29  -1  53   1  65  -1  73  -1
M  END
>  <shape_align_shape_tanimoto>  (3) 
0.36386902689374967

>  <shape_align_color_tanimoto>  (3) 
0.058743274289313342

>  <metric>  (3) 
combo

>  <metric_score>  (3) 
0.211

>  <template_pid>  (3) 
3FT2

>  <template_shape_score>  (3) 
0.364

>  <template_color_score>  (3) 
0.059

>  <template_combo_score>  (3) 
0.211

$$$$
