4UWH_shape_pose
     RDKit          3D

 30 33  0  0  0  0  0  0  0  0999 V2000
   -2.6998   73.9981   77.9723 O   0  0  0  0  0  0  0  0  0  0  0  0
   -1.5604   74.2405   78.3995 C   0  0  0  0  0  0  0  0  0  0  0  0
   -0.9531   73.5242   79.4392 C   0  0  0  0  0  0  0  0  0  0  0  0
    0.3145   73.8176   79.8930 C   0  0  0  0  0  0  0  0  0  0  0  0
    0.9417   73.0734   80.9564 N   0  0  0  0  0  0  0  0  0  0  0  0
    0.3059   71.9672   81.6183 C   0  0  0  0  0  0  0  0  0  0  0  0
    1.2458   70.9296   82.1582 C   0  0  0  0  0  0  0  0  0  0  0  0
    2.5809   71.2583   81.9887 O   0  0  0  0  0  0  0  0  0  0  0  0
    2.7758   72.5789   82.4151 C   0  0  0  0  0  0  0  0  0  0  0  0
    2.2892   73.5136   81.3292 C   0  0  0  0  0  0  0  0  0  0  0  0
    0.9964   74.8341   79.3128 N   0  0  0  0  0  0  0  0  0  0  0  0
    0.4136   75.5154   78.3209 C   0  0  0  0  0  0  0  0  0  0  0  0
   -0.8439   75.2279   77.8657 N   0  0  0  0  0  0  0  0  0  0  0  0
   -1.2715   76.0758   76.7660 C   0  0  0  0  0  0  0  0  0  0  0  0
   -0.2070   76.0890   75.6683 C   0  0  0  0  0  0  0  0  0  0  0  0
    1.1221   76.6199   76.2111 C   0  0  1  0  0  0  0  0  0  0  0  0
    1.3465   77.9840   75.6535 C   0  0  0  0  0  0  0  0  0  0  0  0
    0.3781   78.8974   75.9843 F   0  0  0  0  0  0  0  0  0  0  0  0
    1.3129   77.8130   74.2555 F   0  0  0  0  0  0  0  0  0  0  0  0
    2.5802   78.4956   75.9189 F   0  0  0  0  0  0  0  0  0  0  0  0
    1.1043   76.5883   77.6931 N   0  0  0  0  0  0  0  0  0  0  0  0
    1.7910   77.5414   78.5087 C   0  0  0  0  0  0  0  0  0  0  0  0
    1.3333   77.7169   79.9100 C   0  0  2  0  0  0  0  0  0  0  0  0
   -0.0395   78.1378   79.8501 O   0  0  0  0  0  0  0  0  0  0  0  0
    2.0727   78.8965   80.4992 C   0  0  0  0  0  0  0  0  0  0  0  0
    1.4944   79.6291   81.5314 C   0  0  0  0  0  0  0  0  0  0  0  0
    2.1190   80.7040   82.1230 C   0  0  0  0  0  0  0  0  0  0  0  0
    3.3752   81.0829   81.6822 C   0  0  0  0  0  0  0  0  0  0  0  0
    3.9652   80.3633   80.6539 C   0  0  0  0  0  0  0  0  0  0  0  0
    3.3173   79.2823   80.0713 C   0  0  0  0  0  0  0  0  0  0  0  0
  1  2  2  0
  2  3  1  0
  3  4  2  0
  4  5  1  0
  5  6  1  0
  6  7  1  0
  7  8  1  0
  8  9  1  0
  9 10  1  0
  4 11  1  0
 11 12  2  0
 12 13  1  0
 13 14  1  0
 14 15  1  0
 15 16  1  0
 16 17  1  1
 17 18  1  0
 17 19  1  0
 17 20  1  0
 16 21  1  0
 21 22  1  0
 22 23  1  0
 23 24  1  6
 23 25  1  0
 25 26  2  0
 26 27  1  0
 27 28  2  0
 28 29  1  0
 29 30  2  0
 13  2  1  0
 30 25  1  0
 10  5  1  0
 21 12  1  0
M  CHG  1  11   1
M  END
>  <shape_align_shape_tanimoto>  (1) 
0.70422176071834564

>  <shape_align_color_tanimoto>  (1) 
0.051881857734033775

>  <metric>  (1) 
shape

>  <metric_score>  (1) 
0.704

>  <template_pid>  (1) 
4UWH

>  <template_shape_score>  (1) 
0.704

>  <template_color_score>  (1) 
0.052

>  <template_combo_score>  (1) 
0.378

$$$$
4UWH_color_pose
     RDKit          3D

 30 33  0  0  0  0  0  0  0  0999 V2000
   -1.4541   75.0324   77.6570 O   0  0  0  0  0  0  0  0  0  0  0  0
   -0.4811   75.2655   78.4200 C   0  0  0  0  0  0  0  0  0  0  0  0
    0.0787   76.5204   78.5119 C   0  0  0  0  0  0  0  0  0  0  0  0
    1.1457   76.8014   79.3395 C   0  0  0  0  0  0  0  0  0  0  0  0
    1.7314   78.0730   79.4531 N   0  0  0  0  0  0  0  0  0  0  0  0
    2.9032   78.4981   78.6817 C   0  0  0  0  0  0  0  0  0  0  0  0
    3.9063   79.1728   79.6160 C   0  0  0  0  0  0  0  0  0  0  0  0
    3.2880   80.1422   80.4032 O   0  0  0  0  0  0  0  0  0  0  0  0
    2.3627   79.5262   81.2304 C   0  0  0  0  0  0  0  0  0  0  0  0
    1.1954   79.0893   80.3699 C   0  0  0  0  0  0  0  0  0  0  0  0
    1.6412   75.7837   80.0788 N   0  0  0  0  0  0  0  0  0  0  0  0
    1.1111   74.5277   80.0132 C   0  0  0  0  0  0  0  0  0  0  0  0
    0.0540   74.2697   79.1869 N   0  0  0  0  0  0  0  0  0  0  0  0
   -0.4702   72.9451   79.1448 C   0  0  0  0  0  0  0  0  0  0  0  0
   -0.3933   72.1471   80.3881 C   0  0  0  0  0  0  0  0  0  0  0  0
    0.6917   72.5439   81.3624 C   0  0  1  0  0  0  0  0  0  0  0  0
    1.1783   71.3036   82.0147 C   0  0  0  0  0  0  0  0  0  0  0  0
    2.1902   71.4814   82.9330 F   0  0  0  0  0  0  0  0  0  0  0  0
    0.0874   70.8711   82.8318 F   0  0  0  0  0  0  0  0  0  0  0  0
    1.3692   70.2264   81.1754 F   0  0  0  0  0  0  0  0  0  0  0  0
    1.6636   73.4552   80.8220 N   0  0  0  0  0  0  0  0  0  0  0  0
    3.0741   73.4471   80.9702 C   0  0  0  0  0  0  0  0  0  0  0  0
    3.8351   72.3549   80.2889 C   0  0  2  0  0  0  0  0  0  0  0  0
    5.2179   72.5812   80.5745 O   0  0  0  0  0  0  0  0  0  0  0  0
    3.7016   72.3230   78.8232 C   0  0  0  0  0  0  0  0  0  0  0  0
    2.9726   71.3219   78.1837 C   0  0  0  0  0  0  0  0  0  0  0  0
    2.8274   71.2628   76.8195 C   0  0  0  0  0  0  0  0  0  0  0  0
    3.4194   72.2218   76.0525 C   0  0  0  0  0  0  0  0  0  0  0  0
    4.1541   73.2390   76.6176 C   0  0  0  0  0  0  0  0  0  0  0  0
    4.2781   73.2649   77.9978 C   0  0  0  0  0  0  0  0  0  0  0  0
  1  2  2  0
  2  3  1  0
  3  4  2  0
  4  5  1  0
  5  6  1  0
  6  7  1  0
  7  8  1  0
  8  9  1  0
  9 10  1  0
  4 11  1  0
 11 12  2  0
 12 13  1  0
 13 14  1  0
 14 15  1  0
 15 16  1  0
 16 17  1  6
 17 18  1  0
 17 19  1  0
 17 20  1  0
 16 21  1  0
 21 22  1  0
 22 23  1  0
 23 24  1  6
 23 25  1  0
 25 26  2  0
 26 27  1  0
 27 28  2  0
 28 29  1  0
 29 30  2  0
 13  2  1  0
 30 25  1  0
 10  5  1  0
 21 12  1  0
M  CHG  1  11   1
M  END
>  <shape_align_shape_tanimoto>  (2) 
0.54488984964543008

>  <shape_align_color_tanimoto>  (2) 
0.20373281031347432

>  <metric>  (2) 
color

>  <metric_score>  (2) 
0.204

>  <template_pid>  (2) 
4UWH

>  <template_shape_score>  (2) 
0.545

>  <template_color_score>  (2) 
0.204

>  <template_combo_score>  (2) 
0.374

$$$$
4UWH_combo_pose
     RDKit          3D

 30 33  0  0  0  0  0  0  0  0999 V2000
   -1.1567   77.7695   76.7665 O   0  0  0  0  0  0  0  0  0  0  0  0
   -0.4253   77.4467   77.7484 C   0  0  0  0  0  0  0  0  0  0  0  0
    0.4700   78.3904   78.2034 C   0  0  0  0  0  0  0  0  0  0  0  0
    1.2716   78.0516   79.2712 C   0  0  0  0  0  0  0  0  0  0  0  0
    2.1980   79.0175   79.7493 N   0  0  0  0  0  0  0  0  0  0  0  0
    3.4980   79.1525   79.1133 C   0  0  0  0  0  0  0  0  0  0  0  0
    4.5579   79.2065   80.1680 C   0  0  0  0  0  0  0  0  0  0  0  0
    4.0767   79.5192   81.4372 O   0  0  0  0  0  0  0  0  0  0  0  0
    3.0799   80.5183   81.3491 C   0  0  0  0  0  0  0  0  0  0  0  0
    1.8135   79.8394   80.8638 C   0  0  0  0  0  0  0  0  0  0  0  0
    1.1440   76.8175   79.8201 N   0  0  0  0  0  0  0  0  0  0  0  0
    0.2866   75.9032   79.3891 C   0  0  0  0  0  0  0  0  0  0  0  0
   -0.5105   76.2295   78.3337 N   0  0  0  0  0  0  0  0  0  0  0  0
   -1.4879   75.3178   77.7791 C   0  0  0  0  0  0  0  0  0  0  0  0
   -1.5311   73.9708   78.3925 C   0  0  0  0  0  0  0  0  0  0  0  0
   -0.2646   73.5452   79.1247 C   0  0  1  0  0  0  0  0  0  0  0  0
    0.7629   73.2944   78.0060 C   0  0  0  0  0  0  0  0  0  0  0  0
    1.9465   72.9021   78.5796 F   0  0  0  0  0  0  0  0  0  0  0  0
    0.9886   74.3867   77.2312 F   0  0  0  0  0  0  0  0  0  0  0  0
    0.3302   72.2711   77.1833 F   0  0  0  0  0  0  0  0  0  0  0  0
    0.1733   74.5801   80.0008 N   0  0  0  0  0  0  0  0  0  0  0  0
    0.4922   74.5023   81.3813 C   0  0  0  0  0  0  0  0  0  0  0  0
    1.6730   73.7319   81.8242 C   0  0  2  0  0  0  0  0  0  0  0  0
    2.7978   74.2043   81.1856 O   0  0  0  0  0  0  0  0  0  0  0  0
    1.5605   72.2745   81.9270 C   0  0  0  0  0  0  0  0  0  0  0  0
    2.7737   71.5689   82.0472 C   0  0  0  0  0  0  0  0  0  0  0  0
    2.7616   70.1980   82.1802 C   0  0  0  0  0  0  0  0  0  0  0  0
    1.5842   69.4600   82.2017 C   0  0  0  0  0  0  0  0  0  0  0  0
    0.4011   70.1590   82.0831 C   0  0  0  0  0  0  0  0  0  0  0  0
    0.4311   71.5288   81.9515 C   0  0  0  0  0  0  0  0  0  0  0  0
  1  2  2  0
  2  3  1  0
  3  4  2  0
  4  5  1  0
  5  6  1  0
  6  7  1  0
  7  8  1  0
  8  9  1  0
  9 10  1  0
  4 11  1  0
 11 12  2  0
 12 13  1  0
 13 14  1  0
 14 15  1  0
 15 16  1  0
 16 17  1  6
 17 18  1  0
 17 19  1  0
 17 20  1  0
 16 21  1  0
 21 22  1  0
 22 23  1  0
 23 24  1  6
 23 25  1  0
 25 26  2  0
 26 27  1  0
 27 28  2  0
 28 29  1  0
 29 30  2  0
 13  2  1  0
 30 25  1  0
 10  5  1  0
 21 12  1  0
M  CHG  1  11   1
M  END
>  <shape_align_shape_tanimoto>  (3) 
0.63943013535180548

>  <shape_align_color_tanimoto>  (3) 
0.12541988715175748

>  <metric>  (3) 
combo

>  <metric_score>  (3) 
0.382

>  <template_pid>  (3) 
4UWH

>  <template_shape_score>  (3) 
0.639

>  <template_color_score>  (3) 
0.125

>  <template_combo_score>  (3) 
0.382

$$$$
