5WBF_shape_pose
     RDKit          3D

  6  5  0  0  0  0  0  0  0  0999 V2000
  -34.0394    4.1280   -6.1607 C   0  0  0  0  0  0  0  0  0  0  0  0
  -35.4185    4.7465   -6.1606 C   0  0  1  0  0  0  0  0  0  0  0  0
  -36.2751    3.7842   -6.7355 O   0  0  0  0  0  0  0  0  0  0  0  0
  -35.9063    4.9650   -4.7609 C   0  0  0  0  0  0  0  0  0  0  0  0
  -35.5384    5.9608   -4.0733 O   0  0  0  0  0  0  0  0  0  0  0  0
  -36.7938    4.0705   -4.1549 O   0  0  0  0  0  0  0  0  0  0  0  0
  2  1  1  1
  2  3  1  0
  2  4  1  0
  4  5  2  0
  4  6  1  0
M  CHG  1   6  -1
M  END
>  <shape_align_shape_tanimoto>  (1) 
0.14095573342415221

>  <shape_align_color_tanimoto>  (1) 
0.063914528635527393

>  <metric>  (1) 
shape

>  <metric_score>  (1) 
0.141

>  <template_pid>  (1) 
5WBF

>  <template_shape_score>  (1) 
0.141

>  <template_color_score>  (1) 
0.064

>  <template_combo_score>  (1) 
0.102

$$$$
5WBF_color_pose
     RDKit          3D

  6  5  0  0  0  0  0  0  0  0999 V2000
  -35.4816    2.6630   -3.3128 C   0  0  0  0  0  0  0  0  0  0  0  0
  -35.4286    4.0017   -3.9838 C   0  0  1  0  0  0  0  0  0  0  0  0
  -36.4788    4.8280   -3.5759 O   0  0  0  0  0  0  0  0  0  0  0  0
  -34.1336    4.6531   -3.7567 C   0  0  0  0  0  0  0  0  0  0  0  0
  -34.0785    5.6483   -2.9800 O   0  0  0  0  0  0  0  0  0  0  0  0
  -32.9675    4.2149   -4.3645 O   0  0  0  0  0  0  0  0  0  0  0  0
  2  1  1  1
  2  3  1  0
  2  4  1  0
  4  5  2  0
  4  6  1  0
M  CHG  1   6  -1
M  END
>  <shape_align_shape_tanimoto>  (2) 
0.13244533884027937

>  <shape_align_color_tanimoto>  (2) 
0.086918314134067462

>  <metric>  (2) 
color

>  <metric_score>  (2) 
0.087

>  <template_pid>  (2) 
5WBF

>  <template_shape_score>  (2) 
0.132

>  <template_color_score>  (2) 
0.087

>  <template_combo_score>  (2) 
0.110

$$$$
5WBF_combo_pose
     RDKit          3D

  6  5  0  0  0  0  0  0  0  0999 V2000
  -35.4816    2.6630   -3.3128 C   0  0  0  0  0  0  0  0  0  0  0  0
  -35.4286    4.0017   -3.9838 C   0  0  1  0  0  0  0  0  0  0  0  0
  -36.4788    4.8280   -3.5759 O   0  0  0  0  0  0  0  0  0  0  0  0
  -34.1336    4.6531   -3.7567 C   0  0  0  0  0  0  0  0  0  0  0  0
  -34.0785    5.6483   -2.9800 O   0  0  0  0  0  0  0  0  0  0  0  0
  -32.9675    4.2149   -4.3645 O   0  0  0  0  0  0  0  0  0  0  0  0
  2  1  1  1
  2  3  1  0
  2  4  1  0
  4  5  2  0
  4  6  1  0
M  CHG  1   6  -1
M  END
>  <shape_align_shape_tanimoto>  (3) 
0.13244533884027937

>  <shape_align_color_tanimoto>  (3) 
0.086918314134067462

>  <metric>  (3) 
combo

>  <metric_score>  (3) 
0.110

>  <template_pid>  (3) 
5WBF

>  <template_shape_score>  (3) 
0.132

>  <template_color_score>  (3) 
0.087

>  <template_combo_score>  (3) 
0.110

$$$$
