4KPX_shape_pose
     RDKit          3D

 28 30  0  0  0  0  0  0  0  0999 V2000
   -9.8589    6.3531    2.5049 O   0  0  0  0  0  0  0  0  0  0  0  0
  -11.0955    6.3362    2.1793 C   0  0  0  0  0  0  0  0  0  0  0  0
  -11.6700    5.0453    2.0365 N   0  0  0  0  0  0  0  0  0  0  0  0
  -10.8039    3.9329    2.2717 C   0  0  0  0  0  0  0  0  0  0  0  0
  -10.6872    3.3968    3.5475 C   0  0  0  0  0  0  0  0  0  0  0  0
   -9.8337    2.3220    3.7163 C   0  0  0  0  0  0  0  0  0  0  0  0
   -9.1073    1.7770    2.6701 C   0  0  0  0  0  0  0  0  0  0  0  0
   -8.2237    0.6590    2.8654 N   0  0  0  0  0  0  0  0  0  0  0  0
   -6.8744    1.0015    3.2001 C   0  0  0  0  0  0  0  0  0  0  0  0
   -6.5080    2.2061    3.3110 O   0  0  0  0  0  0  0  0  0  0  0  0
   -5.9043   -0.0888    3.4165 C   0  0  0  0  0  0  0  0  0  0  0  0
   -4.5978    0.2362    3.7394 C   0  0  0  0  0  0  0  0  0  0  0  0
   -3.6532   -0.7194    3.9514 C   0  0  0  0  0  0  0  0  0  0  0  0
   -4.0396   -2.0571    3.8335 C   0  0  0  0  0  0  0  0  0  0  0  0
   -5.3525   -2.3789    3.5091 C   0  0  0  0  0  0  0  0  0  0  0  0
   -6.2692   -1.3896    3.3046 N   0  0  0  0  0  0  0  0  0  0  0  0
   -9.2243    2.3144    1.3909 C   0  0  0  0  0  0  0  0  0  0  0  0
  -10.0838    3.3958    1.2240 C   0  0  0  0  0  0  0  0  0  0  0  0
  -11.8521    7.5686    1.9720 C   0  0  0  0  0  0  0  0  0  0  0  0
  -13.1664    7.6191    1.6274 C   0  0  0  0  0  0  0  0  0  0  0  0
  -13.8113    8.8429    1.4498 C   0  0  0  0  0  0  0  0  0  0  0  0
  -13.1303   10.0466    1.6195 C   0  0  0  0  0  0  0  0  0  0  0  0
  -13.7703   11.2719    1.4433 O   0  0  0  0  0  0  0  0  0  0  0  0
  -11.7976    9.9882    1.9690 C   0  0  0  0  0  0  0  0  0  0  0  0
  -11.0318   11.1898    2.1611 N   0  0  0  0  0  0  0  0  0  0  0  0
  -11.2639   12.2352    1.5184 O   0  0  0  0  0  0  0  0  0  0  0  0
  -10.0220   11.1051    3.1051 O   0  0  0  0  0  0  0  0  0  0  0  0
  -11.1829    8.7666    2.1387 C   0  0  0  0  0  0  0  0  0  0  0  0
  1  2  2  0
  2  3  1  0
  3  4  1  0
  4  5  2  0
  5  6  1  0
  6  7  2  0
  7  8  1  0
  8  9  1  0
  9 10  2  0
  9 11  1  0
 11 12  2  0
 12 13  1  0
 13 14  2  0
 14 15  1  0
 15 16  2  0
  7 17  1  0
 17 18  2  0
  2 19  1  0
 19 20  2  0
 20 21  1  0
 21 22  2  0
 22 23  1  0
 22 24  1  0
 24 25  1  0
 25 26  2  0
 25 27  1  0
 24 28  2  0
 18  4  1  0
 28 19  1  0
 16 11  1  0
M  CHG  2  25   1  27  -1
M  END
>  <shape_align_shape_tanimoto>  (1) 
0.62551496192106093

>  <shape_align_color_tanimoto>  (1) 
0.025523620544622882

>  <metric>  (1) 
shape

>  <metric_score>  (1) 
0.626

>  <template_pid>  (1) 
4KPX

>  <template_shape_score>  (1) 
0.626

>  <template_color_score>  (1) 
0.026

>  <template_combo_score>  (1) 
0.326

$$$$
4KPX_color_pose
     RDKit          3D

 28 30  0  0  0  0  0  0  0  0999 V2000
  -10.0524    1.9152    1.5068 O   0  0  0  0  0  0  0  0  0  0  0  0
   -9.0038    2.0866    2.1592 C   0  0  0  0  0  0  0  0  0  0  0  0
   -8.6576    3.3504    2.6581 N   0  0  0  0  0  0  0  0  0  0  0  0
   -9.3785    4.5503    2.5189 C   0  0  0  0  0  0  0  0  0  0  0  0
  -10.5708    4.7013    1.8577 C   0  0  0  0  0  0  0  0  0  0  0  0
  -11.2143    5.9443    1.7738 C   0  0  0  0  0  0  0  0  0  0  0  0
  -10.6878    7.0748    2.3472 C   0  0  0  0  0  0  0  0  0  0  0  0
  -11.2720    8.3598    2.3071 N   0  0  0  0  0  0  0  0  0  0  0  0
  -12.4780    8.7097    1.6810 C   0  0  0  0  0  0  0  0  0  0  0  0
  -13.2019    7.9005    1.0645 O   0  0  0  0  0  0  0  0  0  0  0  0
  -12.9569   10.1088    1.7299 C   0  0  0  0  0  0  0  0  0  0  0  0
  -14.1243   10.5086    1.1373 C   0  0  0  0  0  0  0  0  0  0  0  0
  -14.5509   11.8287    1.1982 C   0  0  0  0  0  0  0  0  0  0  0  0
  -13.8015   12.7771    1.8633 C   0  0  0  0  0  0  0  0  0  0  0  0
  -12.6298   12.3490    2.4517 C   0  0  0  0  0  0  0  0  0  0  0  0
  -12.2286   11.0601    2.3832 N   0  0  0  0  0  0  0  0  0  0  0  0
   -9.4885    6.9274    3.0133 C   0  0  0  0  0  0  0  0  0  0  0  0
   -8.8566    5.7058    3.0955 C   0  0  0  0  0  0  0  0  0  0  0  0
   -8.1758    0.8792    2.3588 C   0  0  0  0  0  0  0  0  0  0  0  0
   -8.6131   -0.3140    1.8197 C   0  0  0  0  0  0  0  0  0  0  0  0
   -7.8818   -1.5001    1.9673 C   0  0  0  0  0  0  0  0  0  0  0  0
   -6.6897   -1.4661    2.6741 C   0  0  0  0  0  0  0  0  0  0  0  0
   -5.9372   -2.6216    2.8412 O   0  0  0  0  0  0  0  0  0  0  0  0
   -6.2521   -0.2728    3.2133 C   0  0  0  0  0  0  0  0  0  0  0  0
   -5.0190   -0.2212    3.9485 N   0  0  0  0  0  0  0  0  0  0  0  0
   -4.3478    0.8495    4.0041 O   0  0  0  0  0  0  0  0  0  0  0  0
   -4.5664   -1.3536    4.5984 O   0  0  0  0  0  0  0  0  0  0  0  0
   -6.9927    0.8975    3.0565 C   0  0  0  0  0  0  0  0  0  0  0  0
  1  2  2  0
  2  3  1  0
  3  4  1  0
  4  5  2  0
  5  6  1  0
  6  7  2  0
  7  8  1  0
  8  9  1  0
  9 10  2  0
  9 11  1  0
 11 12  2  0
 12 13  1  0
 13 14  2  0
 14 15  1  0
 15 16  2  0
  7 17  1  0
 17 18  2  0
  2 19  1  0
 19 20  2  0
 20 21  1  0
 21 22  2  0
 22 23  1  0
 22 24  1  0
 24 25  1  0
 25 26  2  0
 25 27  1  0
 24 28  2  0
 18  4  1  0
 28 19  1  0
 16 11  1  0
M  CHG  2  25   1  27  -1
M  END
>  <shape_align_shape_tanimoto>  (2) 
0.40324047462520513

>  <shape_align_color_tanimoto>  (2) 
0.090148883779723674

>  <metric>  (2) 
color

>  <metric_score>  (2) 
0.090

>  <template_pid>  (2) 
4KPX

>  <template_shape_score>  (2) 
0.403

>  <template_color_score>  (2) 
0.090

>  <template_combo_score>  (2) 
0.247

$$$$
4KPX_combo_pose
     RDKit          3D

 28 30  0  0  0  0  0  0  0  0999 V2000
   -9.4857    5.8147    2.5040 O   0  0  0  0  0  0  0  0  0  0  0  0
  -10.7345    5.7313    2.2441 C   0  0  0  0  0  0  0  0  0  0  0  0
  -11.2553    4.4297    2.1074 N   0  0  0  0  0  0  0  0  0  0  0  0
  -10.3325    3.3396    2.2731 C   0  0  0  0  0  0  0  0  0  0  0  0
  -10.1728    2.8277    3.5420 C   0  0  0  0  0  0  0  0  0  0  0  0
   -9.2819    1.7690    3.7265 C   0  0  0  0  0  0  0  0  0  0  0  0
   -8.5775    1.2548    2.6335 C   0  0  0  0  0  0  0  0  0  0  0  0
   -7.6896    0.1720    2.9236 N   0  0  0  0  0  0  0  0  0  0  0  0
   -6.3550    0.5201    3.2683 C   0  0  0  0  0  0  0  0  0  0  0  0
   -6.0884    1.7580    3.2825 O   0  0  0  0  0  0  0  0  0  0  0  0
   -5.3463   -0.4851    3.5880 C   0  0  0  0  0  0  0  0  0  0  0  0
   -4.0775   -0.0483    3.9114 C   0  0  0  0  0  0  0  0  0  0  0  0
   -3.0535   -0.8999    4.2274 C   0  0  0  0  0  0  0  0  0  0  0  0
   -3.3339   -2.2613    4.2137 C   0  0  0  0  0  0  0  0  0  0  0  0
   -4.6082   -2.6970    3.8888 C   0  0  0  0  0  0  0  0  0  0  0  0
   -5.5980   -1.8083    3.5804 N   0  0  0  0  0  0  0  0  0  0  0  0
   -8.7362    1.7660    1.3632 C   0  0  0  0  0  0  0  0  0  0  0  0
   -9.6251    2.8171    1.1995 C   0  0  0  0  0  0  0  0  0  0  0  0
  -11.5481    6.9354    2.1029 C   0  0  0  0  0  0  0  0  0  0  0  0
  -12.8970    6.9094    1.8260 C   0  0  0  0  0  0  0  0  0  0  0  0
  -13.6406    8.0872    1.6982 C   0  0  0  0  0  0  0  0  0  0  0  0
  -13.0194    9.3243    1.8512 C   0  0  0  0  0  0  0  0  0  0  0  0
  -13.7774   10.4813    1.7200 O   0  0  0  0  0  0  0  0  0  0  0  0
  -11.6687    9.3328    2.1281 C   0  0  0  0  0  0  0  0  0  0  0  0
  -11.0105   10.5981    2.2895 N   0  0  0  0  0  0  0  0  0  0  0  0
   -9.9904   10.7020    3.0046 O   0  0  0  0  0  0  0  0  0  0  0  0
  -11.4719   11.7421    1.6681 O   0  0  0  0  0  0  0  0  0  0  0  0
  -10.9411    8.1650    2.2528 C   0  0  0  0  0  0  0  0  0  0  0  0
  1  2  2  0
  2  3  1  0
  3  4  1  0
  4  5  2  0
  5  6  1  0
  6  7  2  0
  7  8  1  0
  8  9  1  0
  9 10  2  0
  9 11  1  0
 11 12  2  0
 12 13  1  0
 13 14  2  0
 14 15  1  0
 15 16  2  0
  7 17  1  0
 17 18  2  0
  2 19  1  0
 19 20  2  0
 20 21  1  0
 21 22  2  0
 22 23  1  0
 22 24  1  0
 24 25  1  0
 25 26  2  0
 25 27  1  0
 24 28  2  0
 18  4  1  0
 28 19  1  0
 16 11  1  0
M  CHG  2  25   1  27  -1
M  END
>  <shape_align_shape_tanimoto>  (3) 
0.61575835742547114

>  <shape_align_color_tanimoto>  (3) 
0.053709260845592674

>  <metric>  (3) 
combo

>  <metric_score>  (3) 
0.335

>  <template_pid>  (3) 
4KPX

>  <template_shape_score>  (3) 
0.616

>  <template_color_score>  (3) 
0.054

>  <template_combo_score>  (3) 
0.335

$$$$
