6KQI_shape_pose
     RDKit          3D

 27 28  0  0  0  0  0  0  0  0999 V2000
   -7.9012  -23.5114  -41.5413 C   0  0  0  0  0  0  0  0  0  0  0  0
   -9.0881  -22.6424  -41.1443 C   0  0  0  0  0  0  0  0  0  0  0  0
   -9.6673  -23.1101  -39.8356 C   0  0  0  0  0  0  0  0  0  0  0  0
  -10.8402  -22.2523  -39.4701 C   0  0  0  0  0  0  0  0  0  0  0  0
  -10.4280  -20.8070  -39.3235 C   0  0  0  0  0  0  0  0  0  0  0  0
  -11.6790  -20.0368  -38.9417 C   0  0  0  0  0  0  0  0  0  0  0  0
  -11.4064  -18.5703  -38.7629 C   0  0  0  0  0  0  0  0  0  0  0  0
  -10.3935  -18.4011  -37.6781 C   0  0  0  0  0  0  0  0  0  0  0  0
  -10.9776  -17.9565  -40.0737 C   0  0  0  0  0  0  0  0  0  0  0  0
  -12.6770  -17.9296  -38.3309 C   0  0  0  0  0  0  0  0  0  0  0  0
  -13.8489  -18.6379  -38.1521 C   0  0  0  0  0  0  0  0  0  0  0  0
  -15.0197  -18.0051  -37.7470 C   0  0  0  0  0  0  0  0  0  0  0  0
  -15.0242  -16.6445  -37.5159 C   0  0  0  0  0  0  0  0  0  0  0  0
  -16.2247  -15.9356  -37.0901 C   0  0  2  0  0  0  0  0  0  0  0  0
  -16.2433  -15.9557  -35.5711 C   0  0  0  0  0  0  0  0  0  0  0  0
  -17.4688  -15.2856  -34.9939 C   0  0  2  0  0  0  0  0  0  0  0  0
  -18.2811  -16.1725  -34.2677 O   0  0  0  0  0  0  0  0  0  0  0  0
  -18.3169  -14.6693  -36.0597 C   0  0  0  0  0  0  0  0  0  0  0  0
  -18.6674  -15.7157  -37.0671 C   0  0  0  0  0  0  0  0  0  0  0  0
  -17.5271  -16.5637  -37.5302 C   0  0  1  0  0  0  0  0  0  0  0  0
  -17.6358  -16.7537  -38.9985 C   0  0  0  0  0  0  0  0  0  0  0  0
  -18.9727  -17.3828  -39.3163 C   0  0  0  0  0  0  0  0  0  0  0  0
  -19.1190  -18.7206  -38.6441 C   0  0  0  0  0  0  0  0  0  0  0  0
  -20.3937  -19.2011  -39.0197 O   0  0  0  0  0  0  0  0  0  0  0  0
  -13.8576  -15.9144  -37.6896 C   0  0  0  0  0  0  0  0  0  0  0  0
  -13.8448  -14.5470  -37.4618 O   0  0  0  0  0  0  0  0  0  0  0  0
  -12.6937  -16.5687  -38.0967 C   0  0  0  0  0  0  0  0  0  0  0  0
  1  2  1  0
  2  3  1  0
  3  4  1  0
  4  5  1  0
  5  6  1  0
  6  7  1  0
  7  8  1  0
  7  9  1  0
  7 10  1  0
 10 11  2  0
 11 12  1  0
 12 13  2  0
 14 13  1  6
 14 15  1  0
 15 16  1  0
 16 17  1  6
 16 18  1  0
 18 19  1  0
 19 20  1  0
 20 21  1  6
 21 22  1  0
 22 23  1  0
 23 24  1  0
 13 25  1  0
 25 26  1  0
 25 27  2  0
 27 10  1  0
 20 14  1  0
M  END
>  <shape_align_shape_tanimoto>  (1) 
0.38796793948495989

>  <shape_align_color_tanimoto>  (1) 
0.012287404233353113

>  <metric>  (1) 
shape

>  <metric_score>  (1) 
0.388

>  <template_pid>  (1) 
6KQI

>  <template_shape_score>  (1) 
0.388

>  <template_color_score>  (1) 
0.012

>  <template_combo_score>  (1) 
0.200

$$$$
6KQI_color_pose
     RDKit          3D

 27 28  0  0  0  0  0  0  0  0999 V2000
  -19.8509  -20.0023  -37.1851 C   0  0  0  0  0  0  0  0  0  0  0  0
  -19.1803  -20.2175  -38.4932 C   0  0  0  0  0  0  0  0  0  0  0  0
  -18.3026  -19.1218  -38.9956 C   0  0  0  0  0  0  0  0  0  0  0  0
  -18.8874  -17.8135  -39.2549 C   0  0  0  0  0  0  0  0  0  0  0  0
  -19.4486  -16.9440  -38.2357 C   0  0  0  0  0  0  0  0  0  0  0  0
  -18.7018  -16.3834  -37.1230 C   0  0  0  0  0  0  0  0  0  0  0  0
  -17.5489  -15.5038  -37.2619 C   0  0  0  0  0  0  0  0  0  0  0  0
  -17.7613  -14.2162  -38.0042 C   0  0  0  0  0  0  0  0  0  0  0  0
  -17.1430  -15.0290  -35.8391 C   0  0  0  0  0  0  0  0  0  0  0  0
  -16.3404  -16.1809  -37.7616 C   0  0  0  0  0  0  0  0  0  0  0  0
  -15.9129  -16.1860  -39.0594 C   0  0  0  0  0  0  0  0  0  0  0  0
  -14.7835  -16.8315  -39.4849 C   0  0  0  0  0  0  0  0  0  0  0  0
  -13.9713  -17.5474  -38.5947 C   0  0  0  0  0  0  0  0  0  0  0  0
  -12.7641  -18.2244  -39.0851 C   0  0  2  0  0  0  0  0  0  0  0  0
  -13.0621  -19.6961  -39.4187 C   0  0  0  0  0  0  0  0  0  0  0  0
  -11.7860  -20.2144  -40.0689 C   0  0  2  0  0  0  0  0  0  0  0  0
  -12.0800  -21.4785  -40.6087 O   0  0  0  0  0  0  0  0  0  0  0  0
  -10.6891  -20.2998  -39.0347 C   0  0  0  0  0  0  0  0  0  0  0  0
  -10.8822  -19.3693  -37.8832 C   0  0  0  0  0  0  0  0  0  0  0  0
  -11.5332  -18.0484  -38.2712 C   0  0  1  0  0  0  0  0  0  0  0  0
  -10.4537  -17.2503  -38.9818 C   0  0  0  0  0  0  0  0  0  0  0  0
  -10.9979  -15.8768  -39.2994 C   0  0  0  0  0  0  0  0  0  0  0  0
   -9.9564  -15.0279  -40.0132 C   0  0  0  0  0  0  0  0  0  0  0  0
   -8.8740  -14.9347  -39.1385 O   0  0  0  0  0  0  0  0  0  0  0  0
  -14.3924  -17.5501  -37.2807 C   0  0  0  0  0  0  0  0  0  0  0  0
  -13.6517  -18.2322  -36.3356 O   0  0  0  0  0  0  0  0  0  0  0  0
  -15.5369  -16.8944  -36.8566 C   0  0  0  0  0  0  0  0  0  0  0  0
  1  2  1  0
  2  3  1  0
  3  4  1  0
  4  5  1  0
  5  6  1  0
  6  7  1  0
  7  8  1  0
  7  9  1  0
  7 10  1  0
 10 11  2  0
 11 12  1  0
 12 13  2  0
 14 13  1  1
 14 15  1  0
 15 16  1  0
 16 17  1  1
 16 18  1  0
 18 19  1  0
 19 20  1  0
 20 21  1  6
 21 22  1  0
 22 23  1  0
 23 24  1  0
 13 25  1  0
 25 26  1  0
 25 27  2  0
 27 10  1  0
 20 14  1  0
M  END
>  <shape_align_shape_tanimoto>  (2) 
0.35944173444977234

>  <shape_align_color_tanimoto>  (2) 
0.050792876653928828

>  <metric>  (2) 
color

>  <metric_score>  (2) 
0.051

>  <template_pid>  (2) 
6KQI

>  <template_shape_score>  (2) 
0.359

>  <template_color_score>  (2) 
0.051

>  <template_combo_score>  (2) 
0.205

$$$$
6KQI_combo_pose
     RDKit          3D

 27 28  0  0  0  0  0  0  0  0999 V2000
   -8.6963  -23.0313  -40.9643 C   0  0  0  0  0  0  0  0  0  0  0  0
  -10.1874  -23.1738  -40.8285 C   0  0  0  0  0  0  0  0  0  0  0  0
  -10.7413  -22.2789  -39.7397 C   0  0  0  0  0  0  0  0  0  0  0  0
  -10.4519  -20.8214  -40.0275 C   0  0  0  0  0  0  0  0  0  0  0  0
  -10.9997  -19.8962  -38.9453 C   0  0  0  0  0  0  0  0  0  0  0  0
  -10.6468  -18.4869  -39.3499 C   0  0  0  0  0  0  0  0  0  0  0  0
  -11.1144  -17.4510  -38.3908 C   0  0  0  0  0  0  0  0  0  0  0  0
  -10.6701  -16.1002  -38.9615 C   0  0  0  0  0  0  0  0  0  0  0  0
  -10.3532  -17.5811  -37.0743 C   0  0  0  0  0  0  0  0  0  0  0  0
  -12.5485  -17.4549  -38.1294 C   0  0  0  0  0  0  0  0  0  0  0  0
  -13.3643  -16.6772  -38.9400 C   0  0  0  0  0  0  0  0  0  0  0  0
  -14.7492  -16.6330  -38.7463 C   0  0  0  0  0  0  0  0  0  0  0  0
  -15.3160  -17.3769  -37.7296 C   0  0  0  0  0  0  0  0  0  0  0  0
  -16.7935  -17.3297  -37.5235 C   0  0  2  0  0  0  0  0  0  0  0  0
  -17.3546  -18.4445  -38.3964 C   0  0  0  0  0  0  0  0  0  0  0  0
  -18.8559  -18.4777  -38.2029 C   0  0  2  0  0  0  0  0  0  0  0  0
  -19.3399  -19.6411  -38.8073 O   0  0  0  0  0  0  0  0  0  0  0  0
  -19.4367  -17.2538  -38.8279 C   0  0  0  0  0  0  0  0  0  0  0  0
  -18.3633  -16.2427  -39.1070 C   0  0  0  0  0  0  0  0  0  0  0  0
  -17.4454  -16.0548  -37.8859 C   0  0  1  0  0  0  0  0  0  0  0  0
  -18.3322  -15.4631  -36.8386 C   0  0  0  0  0  0  0  0  0  0  0  0
  -17.6713  -15.1369  -35.5445 C   0  0  0  0  0  0  0  0  0  0  0  0
  -16.5476  -14.1331  -35.6954 C   0  0  0  0  0  0  0  0  0  0  0  0
  -15.9550  -13.8576  -34.4464 O   0  0  0  0  0  0  0  0  0  0  0  0
  -14.5166  -18.1686  -36.8989 C   0  0  0  0  0  0  0  0  0  0  0  0
  -15.0464  -18.9163  -35.8842 O   0  0  0  0  0  0  0  0  0  0  0  0
  -13.1532  -18.1884  -37.1188 C   0  0  0  0  0  0  0  0  0  0  0  0
  1  2  1  0
  2  3  1  0
  3  4  1  0
  4  5  1  0
  5  6  1  0
  6  7  1  0
  7  8  1  0
  7  9  1  0
  7 10  1  0
 10 11  2  0
 11 12  1  0
 12 13  2  0
 14 13  1  6
 14 15  1  0
 15 16  1  0
 16 17  1  6
 16 18  1  0
 18 19  1  0
 19 20  1  0
 20 21  1  1
 21 22  1  0
 22 23  1  0
 23 24  1  0
 13 25  1  0
 25 26  1  0
 25 27  2  0
 27 10  1  0
 20 14  1  0
M  END
>  <shape_align_shape_tanimoto>  (3) 
0.37168953732455101

>  <shape_align_color_tanimoto>  (3) 
0.039347802326901125

>  <metric>  (3) 
combo

>  <metric_score>  (3) 
0.206

>  <template_pid>  (3) 
6KQI

>  <template_shape_score>  (3) 
0.372

>  <template_color_score>  (3) 
0.039

>  <template_combo_score>  (3) 
0.206

$$$$
