6UEG_shape_pose
     RDKit          3D

 22 23  0  0  0  0  0  0  0  0999 V2000
  -29.6631  -21.4701   36.4276 N   0  0  0  0  0  0  0  0  0  0  0  0
  -30.4649  -20.3520   36.0715 C   0  0  0  0  0  0  0  0  0  0  0  0
  -31.5287  -20.4961   35.4002 O   0  0  0  0  0  0  0  0  0  0  0  0
  -29.9773  -19.0268   36.5321 C   0  0  1  0  0  0  0  0  0  0  0  0
  -28.5927  -18.8153   36.0501 C   0  0  0  0  0  0  0  0  0  0  0  0
  -28.2099  -17.4042   35.9359 N   0  0  0  0  0  0  0  0  0  0  0  0
  -26.9322  -17.1097   35.4026 C   0  0  0  0  0  0  0  0  0  0  0  0
  -26.4424  -15.9841   35.1994 O   0  0  0  0  0  0  0  0  0  0  0  0
  -26.0404  -18.2706   35.0260 C   0  0  0  0  0  0  0  0  0  0  0  0
  -25.3244  -18.0591   33.4040 S   0  0  0  0  0  0  0  0  0  0  0  0
  -24.4013  -19.6007   33.0158 C   0  0  0  0  0  0  0  0  0  0  0  0
  -25.4052  -20.7563   32.8831 C   0  0  0  0  0  0  0  0  0  0  0  0
  -24.6329  -21.9781   32.5480 C   0  0  0  0  0  0  0  0  0  0  0  0
  -23.4004  -22.0391   32.4269 O   0  0  0  0  0  0  0  0  0  0  0  0
  -25.3822  -23.1474   32.3580 O   0  0  0  0  0  0  0  0  0  0  0  0
  -29.1556  -16.4345   36.3415 C   0  0  0  0  0  0  0  0  0  0  0  0
  -28.7219  -15.1777   36.6521 C   0  0  0  0  0  0  0  0  0  0  0  0
  -29.5954  -14.1789   37.0560 C   0  0  0  0  0  0  0  0  0  0  0  0
  -30.9588  -14.4703   37.1477 C   0  0  0  0  0  0  0  0  0  0  0  0
  -31.4301  -15.7384   36.8401 C   0  0  0  0  0  0  0  0  0  0  0  0
  -30.5022  -16.6921   36.4425 C   0  0  0  0  0  0  0  0  0  0  0  0
  -30.8803  -18.0125   36.1107 O   0  0  0  0  0  0  0  0  0  0  0  0
  1  2  1  0
  2  3  2  0
  4  2  1  6
  4  5  1  0
  5  6  1  0
  6  7  1  0
  7  8  2  0
  7  9  1  0
  9 10  1  0
 10 11  1  0
 11 12  1  0
 12 13  1  0
 13 14  2  0
 13 15  1  0
  6 16  1  0
 16 17  2  0
 17 18  1  0
 18 19  2  0
 19 20  1  0
 20 21  2  0
 21 22  1  0
 22  4  1  0
 21 16  1  0
M  CHG  1  15  -1
M  END
>  <shape_align_shape_tanimoto>  (1) 
0.74357990280075847

>  <shape_align_color_tanimoto>  (1) 
0.062518630869002736

>  <metric>  (1) 
shape

>  <metric_score>  (1) 
0.744

>  <template_pid>  (1) 
6UEG

>  <template_shape_score>  (1) 
0.744

>  <template_color_score>  (1) 
0.063

>  <template_combo_score>  (1) 
0.403

$$$$
6UEG_color_pose
     RDKit          3D

 22 23  0  0  0  0  0  0  0  0999 V2000
  -29.2131  -19.1371   32.3912 N   0  0  0  0  0  0  0  0  0  0  0  0
  -29.9482  -18.5450   33.4513 C   0  0  0  0  0  0  0  0  0  0  0  0
  -30.8212  -17.6516   33.2014 O   0  0  0  0  0  0  0  0  0  0  0  0
  -29.7343  -18.9370   34.8908 C   0  0  1  0  0  0  0  0  0  0  0  0
  -28.2468  -18.7537   35.2054 C   0  0  0  0  0  0  0  0  0  0  0  0
  -27.9647  -17.3434   35.3509 N   0  0  0  0  0  0  0  0  0  0  0  0
  -26.9403  -16.6304   34.7220 C   0  0  0  0  0  0  0  0  0  0  0  0
  -27.0147  -15.3370   34.7150 O   0  0  0  0  0  0  0  0  0  0  0  0
  -25.7397  -17.1375   34.0386 C   0  0  0  0  0  0  0  0  0  0  0  0
  -25.4193  -18.8939   34.1476 S   0  0  0  0  0  0  0  0  0  0  0  0
  -23.9302  -19.3296   33.2541 C   0  0  0  0  0  0  0  0  0  0  0  0
  -23.5797  -20.8086   33.2774 C   0  0  0  0  0  0  0  0  0  0  0  0
  -24.6591  -21.6222   32.7115 C   0  0  0  0  0  0  0  0  0  0  0  0
  -25.8540  -21.3775   33.1041 O   0  0  0  0  0  0  0  0  0  0  0  0
  -24.4047  -22.6391   31.7704 O   0  0  0  0  0  0  0  0  0  0  0  0
  -28.8986  -16.6326   36.1971 C   0  0  0  0  0  0  0  0  0  0  0  0
  -28.5451  -15.4802   36.8642 C   0  0  0  0  0  0  0  0  0  0  0  0
  -29.4671  -14.8302   37.6644 C   0  0  0  0  0  0  0  0  0  0  0  0
  -30.7610  -15.2992   37.8317 C   0  0  0  0  0  0  0  0  0  0  0  0
  -31.1234  -16.4542   37.1683 C   0  0  0  0  0  0  0  0  0  0  0  0
  -30.1980  -17.0920   36.3735 C   0  0  0  0  0  0  0  0  0  0  0  0
  -30.5835  -18.2299   35.7351 O   0  0  0  0  0  0  0  0  0  0  0  0
  1  2  1  0
  2  3  2  0
  4  2  1  6
  4  5  1  0
  5  6  1  0
  6  7  1  0
  7  8  2  0
  7  9  1  0
  9 10  1  0
 10 11  1  0
 11 12  1  0
 12 13  1  0
 13 14  2  0
 13 15  1  0
  6 16  1  0
 16 17  2  0
 17 18  1  0
 18 19  2  0
 19 20  1  0
 20 21  2  0
 21 22  1  0
 22  4  1  0
 21 16  1  0
M  CHG  1  15  -1
M  END
>  <shape_align_shape_tanimoto>  (2) 
0.69610074647588616

>  <shape_align_color_tanimoto>  (2) 
0.16320222075107854

>  <metric>  (2) 
color

>  <metric_score>  (2) 
0.163

>  <template_pid>  (2) 
6UEG

>  <template_shape_score>  (2) 
0.696

>  <template_color_score>  (2) 
0.163

>  <template_combo_score>  (2) 
0.430

$$$$
6UEG_combo_pose
     RDKit          3D

 22 23  0  0  0  0  0  0  0  0999 V2000
  -29.2131  -19.1371   32.3912 N   0  0  0  0  0  0  0  0  0  0  0  0
  -29.9482  -18.5450   33.4513 C   0  0  0  0  0  0  0  0  0  0  0  0
  -30.8212  -17.6516   33.2014 O   0  0  0  0  0  0  0  0  0  0  0  0
  -29.7343  -18.9370   34.8908 C   0  0  1  0  0  0  0  0  0  0  0  0
  -28.2468  -18.7537   35.2054 C   0  0  0  0  0  0  0  0  0  0  0  0
  -27.9647  -17.3434   35.3509 N   0  0  0  0  0  0  0  0  0  0  0  0
  -26.9403  -16.6304   34.7220 C   0  0  0  0  0  0  0  0  0  0  0  0
  -27.0147  -15.3370   34.7150 O   0  0  0  0  0  0  0  0  0  0  0  0
  -25.7397  -17.1375   34.0386 C   0  0  0  0  0  0  0  0  0  0  0  0
  -25.4193  -18.8939   34.1476 S   0  0  0  0  0  0  0  0  0  0  0  0
  -23.9302  -19.3296   33.2541 C   0  0  0  0  0  0  0  0  0  0  0  0
  -23.5797  -20.8086   33.2774 C   0  0  0  0  0  0  0  0  0  0  0  0
  -24.6591  -21.6222   32.7115 C   0  0  0  0  0  0  0  0  0  0  0  0
  -25.8540  -21.3775   33.1041 O   0  0  0  0  0  0  0  0  0  0  0  0
  -24.4047  -22.6391   31.7704 O   0  0  0  0  0  0  0  0  0  0  0  0
  -28.8986  -16.6326   36.1971 C   0  0  0  0  0  0  0  0  0  0  0  0
  -28.5451  -15.4802   36.8642 C   0  0  0  0  0  0  0  0  0  0  0  0
  -29.4671  -14.8302   37.6644 C   0  0  0  0  0  0  0  0  0  0  0  0
  -30.7610  -15.2992   37.8317 C   0  0  0  0  0  0  0  0  0  0  0  0
  -31.1234  -16.4542   37.1683 C   0  0  0  0  0  0  0  0  0  0  0  0
  -30.1980  -17.0920   36.3735 C   0  0  0  0  0  0  0  0  0  0  0  0
  -30.5835  -18.2299   35.7351 O   0  0  0  0  0  0  0  0  0  0  0  0
  1  2  1  0
  2  3  2  0
  4  2  1  6
  4  5  1  0
  5  6  1  0
  6  7  1  0
  7  8  2  0
  7  9  1  0
  9 10  1  0
 10 11  1  0
 11 12  1  0
 12 13  1  0
 13 14  2  0
 13 15  1  0
  6 16  1  0
 16 17  2  0
 17 18  1  0
 18 19  2  0
 19 20  1  0
 20 21  2  0
 21 22  1  0
 22  4  1  0
 21 16  1  0
M  CHG  1  15  -1
M  END
>  <shape_align_shape_tanimoto>  (3) 
0.69610074647588616

>  <shape_align_color_tanimoto>  (3) 
0.16320222075107854

>  <metric>  (3) 
combo

>  <metric_score>  (3) 
0.430

>  <template_pid>  (3) 
6UEG

>  <template_shape_score>  (3) 
0.696

>  <template_color_score>  (3) 
0.163

>  <template_combo_score>  (3) 
0.430

$$$$
