6G9F_shape_pose
     RDKit          3D

 17 17  0  0  0  0  0  0  0  0999 V2000
  -28.6202   91.1407   20.4973 N   0  0  0  0  0  0  0  0  0  0  0  0
  -29.0037   91.4741   19.1415 C   0  0  0  0  0  0  0  0  0  0  0  0
  -28.0544   91.5102   18.3211 O   0  0  0  0  0  0  0  0  0  0  0  0
  -30.4034   91.7228   18.8868 C   0  0  2  0  0  0  0  0  0  0  0  0
  -31.3436   90.5795   19.2916 C   0  0  0  0  0  0  0  0  0  0  0  0
  -32.7020   91.1866   19.3763 C   0  0  0  0  0  0  0  0  0  0  0  0
  -33.1447   92.0551   18.2799 C   0  0  1  0  0  0  0  0  0  0  0  0
  -33.9200   93.1628   18.8255 N   0  0  0  0  0  0  0  0  0  0  0  0
  -35.2443   93.0493   18.5799 O   0  0  0  0  0  0  0  0  0  0  0  0
  -36.0836   92.5324   19.9163 S   0  0  0  0  0  0  0  0  0  0  0  0
  -36.1937   91.0307   19.8766 O   0  0  0  0  0  0  0  0  0  0  0  0
  -37.5037   93.0584   19.9437 O   0  0  0  0  0  0  0  0  0  0  0  0
  -35.3547   93.0167   21.3504 O   0  0  0  0  0  0  0  0  0  0  0  0
  -32.1134   92.6332   17.3657 C   0  0  0  0  0  0  0  0  0  0  0  0
  -30.7998   92.0116   17.5388 N   0  0  0  0  0  0  0  0  0  0  0  0
  -30.0558   91.7524   16.3715 C   0  0  0  0  0  0  0  0  0  0  0  0
  -30.5970   92.0906   15.2676 O   0  0  0  0  0  0  0  0  0  0  0  0
  1  2  1  0
  2  3  2  0
  4  2  1  6
  4  5  1  0
  5  6  1  0
  6  7  1  0
  7  8  1  1
  8  9  1  0
  9 10  1  0
 10 11  2  0
 10 12  2  0
 10 13  1  0
  7 14  1  0
 14 15  1  0
 15 16  1  0
 16 17  2  0
 15  4  1  0
M  CHG  2   8   1  13  -1
M  END
>  <shape_align_shape_tanimoto>  (1) 
0.78340927929467963

>  <shape_align_color_tanimoto>  (1) 
0.01246604467523115

>  <metric>  (1) 
shape

>  <metric_score>  (1) 
0.783

>  <template_pid>  (1) 
6G9F

>  <template_shape_score>  (1) 
0.783

>  <template_color_score>  (1) 
0.012

>  <template_combo_score>  (1) 
0.398

$$$$
6G9F_color_pose
     RDKit          3D

 17 17  0  0  0  0  0  0  0  0999 V2000
  -35.2920   91.6457   19.2577 N   0  0  0  0  0  0  0  0  0  0  0  0
  -34.2080   92.5560   19.4150 C   0  0  0  0  0  0  0  0  0  0  0  0
  -34.3660   93.5773   20.1430 O   0  0  0  0  0  0  0  0  0  0  0  0
  -32.8893   92.3781   18.7700 C   0  0  2  0  0  0  0  0  0  0  0  0
  -32.6054   93.5627   17.8716 C   0  0  0  0  0  0  0  0  0  0  0  0
  -31.2833   93.4374   17.1864 C   0  0  0  0  0  0  0  0  0  0  0  0
  -31.0041   92.0519   16.6772 C   0  0  1  0  0  0  0  0  0  0  0  0
  -30.1185   91.2950   17.5121 N   0  0  0  0  0  0  0  0  0  0  0  0
  -29.4243   92.0529   18.3875 O   0  0  0  0  0  0  0  0  0  0  0  0
  -29.0469   91.0662   19.6942 S   0  0  0  0  0  0  0  0  0  0  0  0
  -28.4011   91.8247   20.8154 O   0  0  0  0  0  0  0  0  0  0  0  0
  -30.2727   90.3744   20.2124 O   0  0  0  0  0  0  0  0  0  0  0  0
  -28.0003   89.8558   19.1360 O   0  0  0  0  0  0  0  0  0  0  0  0
  -32.3632   91.3544   16.5693 C   0  0  0  0  0  0  0  0  0  0  0  0
  -32.8057   91.1833   17.9590 N   0  0  0  0  0  0  0  0  0  0  0  0
  -33.1307   89.8960   18.4610 C   0  0  0  0  0  0  0  0  0  0  0  0
  -33.5149   89.6793   19.6372 O   0  0  0  0  0  0  0  0  0  0  0  0
  1  2  1  0
  2  3  2  0
  4  2  1  6
  4  5  1  0
  5  6  1  0
  6  7  1  0
  7  8  1  1
  8  9  1  0
  9 10  1  0
 10 11  2  0
 10 12  2  0
 10 13  1  0
  7 14  1  0
 14 15  1  0
 15 16  1  0
 16 17  2  0
 15  4  1  0
M  CHG  2   8   1  13  -1
M  END
>  <shape_align_shape_tanimoto>  (2) 
0.54289794529155821

>  <shape_align_color_tanimoto>  (2) 
0.14513152520420392

>  <metric>  (2) 
color

>  <metric_score>  (2) 
0.145

>  <template_pid>  (2) 
6G9F

>  <template_shape_score>  (2) 
0.543

>  <template_color_score>  (2) 
0.145

>  <template_combo_score>  (2) 
0.344

$$$$
6G9F_combo_pose
     RDKit          3D

 17 17  0  0  0  0  0  0  0  0999 V2000
  -28.5431   91.3636   15.9288 N   0  0  0  0  0  0  0  0  0  0  0  0
  -29.0045   91.6589   17.2429 C   0  0  0  0  0  0  0  0  0  0  0  0
  -28.1838   92.0656   18.1054 O   0  0  0  0  0  0  0  0  0  0  0  0
  -30.4500   91.4624   17.5092 C   0  0  2  0  0  0  0  0  0  0  0  0
  -31.3146   92.3097   16.6113 C   0  0  0  0  0  0  0  0  0  0  0  0
  -32.7605   92.0233   17.0302 C   0  0  0  0  0  0  0  0  0  0  0  0
  -33.0558   92.6365   18.3807 C   0  0  1  0  0  0  0  0  0  0  0  0
  -34.1455   91.9567   19.0559 N   0  0  0  0  0  0  0  0  0  0  0  0
  -35.3562   92.4945   18.7531 O   0  0  0  0  0  0  0  0  0  0  0  0
  -36.3253   92.6338   20.1169 S   0  0  0  0  0  0  0  0  0  0  0  0
  -36.9135   94.0209   20.1124 O   0  0  0  0  0  0  0  0  0  0  0  0
  -35.5287   92.3667   21.3635 O   0  0  0  0  0  0  0  0  0  0  0  0
  -37.6214   91.5641   19.9767 O   0  0  0  0  0  0  0  0  0  0  0  0
  -31.8143   92.7601   19.2313 C   0  0  0  0  0  0  0  0  0  0  0  0
  -30.8056   91.7820   18.8717 N   0  0  0  0  0  0  0  0  0  0  0  0
  -30.1013   91.0716   19.9130 C   0  0  0  0  0  0  0  0  0  0  0  0
  -29.2206   90.2143   19.6595 O   0  0  0  0  0  0  0  0  0  0  0  0
  1  2  1  0
  2  3  2  0
  4  2  1  1
  4  5  1  0
  5  6  1  0
  6  7  1  0
  7  8  1  1
  8  9  1  0
  9 10  1  0
 10 11  2  0
 10 12  2  0
 10 13  1  0
  7 14  1  0
 14 15  1  0
 15 16  1  0
 16 17  2  0
 15  4  1  0
M  CHG  2   8   1  13  -1
M  END
>  <shape_align_shape_tanimoto>  (3) 
0.78044636167551518

>  <shape_align_color_tanimoto>  (3) 
0.048172592170489553

>  <metric>  (3) 
combo

>  <metric_score>  (3) 
0.414

>  <template_pid>  (3) 
6G9F

>  <template_shape_score>  (3) 
0.780

>  <template_color_score>  (3) 
0.048

>  <template_combo_score>  (3) 
0.414

$$$$
