3H23_shape_pose
     RDKit          3D

 24 25  0  0  0  0  0  0  0  0999 V2000
   17.5469  -32.7383   -1.8642 N   0  0  0  0  0  0  0  0  0  0  0  0
   17.0720  -31.9864   -2.8101 C   0  0  0  0  0  0  0  0  0  0  0  0
   17.1434  -30.5747   -2.7639 N   0  0  0  0  0  0  0  0  0  0  0  0
   16.6894  -29.7856   -3.6722 C   0  0  0  0  0  0  0  0  0  0  0  0
   16.8331  -28.3631   -3.4897 N   0  0  0  0  0  0  0  0  0  0  0  0
   17.8823  -27.8013   -2.6956 C   0  0  0  0  0  0  0  0  0  0  0  0
   17.8096  -28.0487   -1.2310 C   0  0  0  0  0  0  0  0  0  0  0  0
   19.0086  -27.3845   -0.5060 C   0  0  0  0  0  0  0  0  0  0  0  0
   20.1190  -27.8541   -0.8927 O   0  0  0  0  0  0  0  0  0  0  0  0
   21.2429  -28.3134   -1.2690 C   0  0  0  0  0  0  0  0  0  0  0  0
   21.3799  -29.3348   -2.2175 C   0  0  0  0  0  0  0  0  0  0  0  0
   22.5923  -29.8218   -2.6168 C   0  0  0  0  0  0  0  0  0  0  0  0
   23.7282  -29.2848   -2.0622 C   0  0  0  0  0  0  0  0  0  0  0  0
   25.0422  -29.7664   -2.4549 C   0  0  0  0  0  0  0  0  0  0  0  0
   26.0691  -29.2855   -1.9615 O   0  0  0  0  0  0  0  0  0  0  0  0
   25.1884  -30.7823   -3.3978 O   0  0  0  0  0  0  0  0  0  0  0  0
   23.6763  -28.2817   -1.1266 C   0  0  0  0  0  0  0  0  0  0  0  0
   22.4538  -27.8160   -0.7477 C   0  0  0  0  0  0  0  0  0  0  0  0
   16.0197  -30.2380   -4.9164 C   0  0  0  0  0  0  0  0  0  0  0  0
   16.7519  -29.7816   -6.0884 N   0  0  0  0  0  0  0  0  0  0  0  0
   17.9285  -30.0583   -6.1757 O   0  0  0  0  0  0  0  0  0  0  0  0
   15.9410  -31.7159   -4.9640 C   0  0  0  0  0  0  0  0  0  0  0  0
   15.3818  -32.2190   -5.9819 O   0  0  0  0  0  0  0  0  0  0  0  0
   16.4506  -32.5683   -3.9477 N   0  0  0  0  0  0  0  0  0  0  0  0
  1  2  2  0
  2  3  1  0
  3  4  2  0
  4  5  1  0
  5  6  1  0
  6  7  1  0
  7  8  1  0
  8  9  1  0
  9 10  1  0
 10 11  2  0
 11 12  1  0
 12 13  2  0
 13 14  1  0
 14 15  2  0
 14 16  1  0
 13 17  1  0
 17 18  2  0
  4 19  1  0
 19 20  1  0
 20 21  2  0
 19 22  1  0
 22 23  2  0
 22 24  1  0
 24  2  1  0
 18 10  1  0
M  CHG  1  16  -1
M  END
>  <shape_align_shape_tanimoto>  (1) 
0.53582575948186428

>  <shape_align_color_tanimoto>  (1) 
0.041876875943979291

>  <metric>  (1) 
shape

>  <metric_score>  (1) 
0.536

>  <template_pid>  (1) 
3H23

>  <template_shape_score>  (1) 
0.536

>  <template_color_score>  (1) 
0.042

>  <template_combo_score>  (1) 
0.289

$$$$
3H23_color_pose
     RDKit          3D

 24 25  0  0  0  0  0  0  0  0999 V2000
   24.5474  -30.5070    1.6634 N   0  0  0  0  0  0  0  0  0  0  0  0
   24.8447  -30.3472    0.4175 C   0  0  0  0  0  0  0  0  0  0  0  0
   24.7928  -29.1021   -0.2544 N   0  0  0  0  0  0  0  0  0  0  0  0
   25.0897  -28.9502   -1.4903 C   0  0  0  0  0  0  0  0  0  0  0  0
   24.9759  -27.6074   -2.0019 N   0  0  0  0  0  0  0  0  0  0  0  0
   23.9655  -26.6840   -1.6267 C   0  0  0  0  0  0  0  0  0  0  0  0
   22.5730  -26.9956   -2.1033 C   0  0  0  0  0  0  0  0  0  0  0  0
   22.0077  -28.2891   -1.6309 C   0  0  0  0  0  0  0  0  0  0  0  0
   20.7190  -28.6002   -2.0424 O   0  0  0  0  0  0  0  0  0  0  0  0
   19.5224  -28.0019   -1.8065 C   0  0  0  0  0  0  0  0  0  0  0  0
   19.2771  -26.8968   -1.0446 C   0  0  0  0  0  0  0  0  0  0  0  0
   17.9968  -26.3610   -0.8732 C   0  0  0  0  0  0  0  0  0  0  0  0
   16.9193  -26.9570   -1.4896 C   0  0  0  0  0  0  0  0  0  0  0  0
   15.5991  -26.3700   -1.2865 C   0  0  0  0  0  0  0  0  0  0  0  0
   15.4024  -25.3526   -0.5811 O   0  0  0  0  0  0  0  0  0  0  0  0
   14.4633  -26.9272   -1.8841 O   0  0  0  0  0  0  0  0  0  0  0  0
   17.1368  -28.0748   -2.2645 C   0  0  0  0  0  0  0  0  0  0  0  0
   18.4049  -28.5843   -2.4190 C   0  0  0  0  0  0  0  0  0  0  0  0
   25.5466  -30.0081   -2.4137 C   0  0  0  0  0  0  0  0  0  0  0  0
   26.9426  -29.6848   -2.6946 N   0  0  0  0  0  0  0  0  0  0  0  0
   27.8187  -30.0146   -1.9615 O   0  0  0  0  0  0  0  0  0  0  0  0
   25.5703  -31.2962   -1.6929 C   0  0  0  0  0  0  0  0  0  0  0  0
   25.9071  -32.3186   -2.3513 O   0  0  0  0  0  0  0  0  0  0  0  0
   25.2489  -31.4821   -0.3323 N   0  0  0  0  0  0  0  0  0  0  0  0
  1  2  2  0
  2  3  1  0
  3  4  2  0
  4  5  1  0
  5  6  1  0
  6  7  1  0
  7  8  1  0
  8  9  1  0
  9 10  1  0
 10 11  2  0
 11 12  1  0
 12 13  2  0
 13 14  1  0
 14 15  2  0
 14 16  1  0
 13 17  1  0
 17 18  2  0
  4 19  1  0
 19 20  1  0
 20 21  2  0
 19 22  1  0
 22 23  2  0
 22 24  1  0
 24  2  1  0
 18 10  1  0
M  CHG  1  16  -1
M  END
>  <shape_align_shape_tanimoto>  (2) 
0.42556835565786244

>  <shape_align_color_tanimoto>  (2) 
0.10249280143037401

>  <metric>  (2) 
color

>  <metric_score>  (2) 
0.102

>  <template_pid>  (2) 
3H23

>  <template_shape_score>  (2) 
0.426

>  <template_color_score>  (2) 
0.102

>  <template_combo_score>  (2) 
0.264

$$$$
3H23_combo_pose
     RDKit          3D

 24 25  0  0  0  0  0  0  0  0999 V2000
   24.6654  -30.0373    2.0985 N   0  0  0  0  0  0  0  0  0  0  0  0
   24.7706  -30.0673    0.8125 C   0  0  0  0  0  0  0  0  0  0  0  0
   23.8678  -29.2711    0.0593 N   0  0  0  0  0  0  0  0  0  0  0  0
   23.8936  -29.2338   -1.2293 C   0  0  0  0  0  0  0  0  0  0  0  0
   22.9409  -28.4008   -1.8718 N   0  0  0  0  0  0  0  0  0  0  0  0
   22.1709  -27.3883   -1.2106 C   0  0  0  0  0  0  0  0  0  0  0  0
   21.1650  -27.9620   -0.2409 C   0  0  0  0  0  0  0  0  0  0  0  0
   20.1848  -28.8824   -0.9362 C   0  0  0  0  0  0  0  0  0  0  0  0
   19.4405  -28.2608   -1.9469 O   0  0  0  0  0  0  0  0  0  0  0  0
   18.5187  -29.0731   -2.6259 C   0  0  0  0  0  0  0  0  0  0  0  0
   18.3990  -30.4021   -2.2705 C   0  0  0  0  0  0  0  0  0  0  0  0
   17.5152  -31.2699   -2.8909 C   0  0  0  0  0  0  0  0  0  0  0  0
   16.7411  -30.7448   -3.9003 C   0  0  0  0  0  0  0  0  0  0  0  0
   15.8091  -31.6277   -4.5709 C   0  0  0  0  0  0  0  0  0  0  0  0
   15.6730  -32.8529   -4.2705 O   0  0  0  0  0  0  0  0  0  0  0  0
   15.0160  -31.1340   -5.5941 O   0  0  0  0  0  0  0  0  0  0  0  0
   16.8432  -29.4030   -4.2791 C   0  0  0  0  0  0  0  0  0  0  0  0
   17.7441  -28.5687   -3.6282 C   0  0  0  0  0  0  0  0  0  0  0  0
   24.8414  -29.9980   -2.0671 C   0  0  0  0  0  0  0  0  0  0  0  0
   25.5416  -29.1143   -2.9521 N   0  0  0  0  0  0  0  0  0  0  0  0
   26.5706  -29.4081   -3.4828 O   0  0  0  0  0  0  0  0  0  0  0  0
   25.7763  -30.8208   -1.2593 C   0  0  0  0  0  0  0  0  0  0  0  0
   26.6350  -31.5155   -1.8582 O   0  0  0  0  0  0  0  0  0  0  0  0
   25.7407  -30.8557    0.1620 N   0  0  0  0  0  0  0  0  0  0  0  0
  1  2  2  0
  2  3  1  0
  3  4  2  0
  4  5  1  0
  5  6  1  0
  6  7  1  0
  7  8  1  0
  8  9  1  0
  9 10  1  0
 10 11  2  0
 11 12  1  0
 12 13  2  0
 13 14  1  0
 14 15  2  0
 14 16  1  0
 13 17  1  0
 17 18  2  0
  4 19  1  0
 19 20  1  0
 20 21  2  0
 19 22  1  0
 22 23  2  0
 22 24  1  0
 24  2  1  0
 18 10  1  0
M  CHG  1  16  -1
M  END
>  <shape_align_shape_tanimoto>  (3) 
0.51765464568968544

>  <shape_align_color_tanimoto>  (3) 
0.099476662954933431

>  <metric>  (3) 
combo

>  <metric_score>  (3) 
0.309

>  <template_pid>  (3) 
3H23

>  <template_shape_score>  (3) 
0.518

>  <template_color_score>  (3) 
0.099

>  <template_combo_score>  (3) 
0.309

$$$$
