3TCP_shape_pose
     RDKit          3D

 29 32  0  0  0  0  0  0  0  0999 V2000
   -1.2103  -33.1918    8.2784 C   0  0  0  0  0  0  0  0  0  0  0  0
   -0.5270  -34.5459    8.2784 C   0  0  0  0  0  0  0  0  0  0  0  0
   -1.4400  -35.6977    8.6737 C   0  0  0  0  0  0  0  0  0  0  0  0
   -2.0150  -35.5323   10.0795 C   0  0  0  0  0  0  0  0  0  0  0  0
   -2.8702  -36.7157   10.3244 N   0  0  0  0  0  0  0  0  0  0  0  0
   -3.9829  -36.9127    9.4370 C   0  0  0  0  0  0  0  0  0  0  0  0
   -5.1816  -36.3827    9.8044 N   0  0  0  0  0  0  0  0  0  0  0  0
   -6.2936  -36.5274    9.0086 C   0  0  0  0  0  0  0  0  0  0  0  0
   -6.1688  -37.2307    7.8126 C   0  0  0  0  0  0  0  0  0  0  0  0
   -7.0926  -37.5387    6.8168 C   0  0  0  0  0  0  0  0  0  0  0  0
   -8.5239  -37.1998    6.7309 C   0  0  0  0  0  0  0  0  0  0  0  0
   -9.0271  -35.9336    7.0193 C   0  0  0  0  0  0  0  0  0  0  0  0
  -10.3781  -35.6083    6.9388 C   0  0  0  0  0  0  0  0  0  0  0  0
  -11.2479  -36.6376    6.5426 C   0  0  0  0  0  0  0  0  0  0  0  0
  -12.5758  -36.3925    6.4428 F   0  0  0  0  0  0  0  0  0  0  0  0
  -10.7951  -37.9191    6.2437 C   0  0  0  0  0  0  0  0  0  0  0  0
   -9.4144  -38.2052    6.3389 C   0  0  0  0  0  0  0  0  0  0  0  0
   -6.4115  -38.2450    5.8843 N   0  0  0  0  0  0  0  0  0  0  0  0
   -5.1316  -38.3927    6.2381 N   0  0  0  0  0  0  0  0  0  0  0  0
   -4.1359  -39.1015    5.4415 C   0  0  0  0  0  0  0  0  0  0  0  0
   -4.0169  -40.5837    5.7657 C   0  0  1  0  0  0  0  0  0  0  0  0
   -5.2710  -41.3624    5.5635 C   0  0  0  0  0  0  0  0  0  0  0  0
   -5.4508  -42.0926    4.2751 C   0  0  0  0  0  0  0  0  0  0  0  0
   -4.4488  -41.7261    3.1964 C   0  0  2  0  0  0  0  0  0  0  0  0
   -4.5680  -42.7463    2.1236 N   0  0  0  0  0  0  0  0  0  0  0  0
   -3.0719  -41.9078    3.7922 C   0  0  0  0  0  0  0  0  0  0  0  0
   -2.8037  -41.1013    5.0241 C   0  0  0  0  0  0  0  0  0  0  0  0
   -4.9432  -37.7741    7.4341 C   0  0  0  0  0  0  0  0  0  0  0  0
   -3.8515  -37.6103    8.2543 N   0  0  0  0  0  0  0  0  0  0  0  0
  1  2  1  0
  2  3  1  0
  3  4  1  0
  4  5  1  0
  5  6  1  0
  6  7  2  0
  7  8  1  0
  8  9  2  0
  9 10  1  0
 10 11  1  0
 11 12  2  0
 12 13  1  0
 13 14  2  0
 14 15  1  0
 14 16  1  0
 16 17  2  0
 10 18  2  0
 18 19  1  0
 19 20  1  0
 21 20  1  6
 21 22  1  0
 22 23  1  0
 23 24  1  0
 24 25  1  6
 24 26  1  0
 26 27  1  0
 19 28  1  0
 28 29  2  0
 29  6  1  0
 28  9  1  0
 17 11  1  0
 27 21  1  0
M  CHG  1  25   1
M  END
>  <shape_align_shape_tanimoto>  (1) 
0.66004716956921905

>  <shape_align_color_tanimoto>  (1) 
0.0072418418913161491

>  <metric>  (1) 
shape

>  <metric_score>  (1) 
0.660

>  <template_pid>  (1) 
3TCP

>  <template_shape_score>  (1) 
0.660

>  <template_color_score>  (1) 
0.007

>  <template_combo_score>  (1) 
0.334

$$$$
3TCP_color_pose
     RDKit          3D

 29 32  0  0  0  0  0  0  0  0999 V2000
  -10.0396  -40.1008    1.4383 C   0  0  0  0  0  0  0  0  0  0  0  0
  -10.6422  -39.3339    2.6216 C   0  0  0  0  0  0  0  0  0  0  0  0
  -10.7218  -40.2921    3.7738 C   0  0  0  0  0  0  0  0  0  0  0  0
  -11.2969  -39.6758    5.0122 C   0  0  0  0  0  0  0  0  0  0  0  0
  -10.5800  -38.5566    5.5308 N   0  0  0  0  0  0  0  0  0  0  0  0
   -9.2527  -38.5605    6.0053 C   0  0  0  0  0  0  0  0  0  0  0  0
   -8.7223  -37.3947    6.4796 N   0  0  0  0  0  0  0  0  0  0  0  0
   -7.4777  -37.3015    6.9601 C   0  0  0  0  0  0  0  0  0  0  0  0
   -6.6701  -38.4109    6.9918 C   0  0  0  0  0  0  0  0  0  0  0  0
   -5.3766  -38.6008    7.4322 C   0  0  0  0  0  0  0  0  0  0  0  0
   -4.4770  -37.6048    8.0055 C   0  0  0  0  0  0  0  0  0  0  0  0
   -4.8727  -36.6968    8.9665 C   0  0  0  0  0  0  0  0  0  0  0  0
   -3.9853  -35.7718    9.4801 C   0  0  0  0  0  0  0  0  0  0  0  0
   -2.6933  -35.7912    8.9968 C   0  0  0  0  0  0  0  0  0  0  0  0
   -1.8272  -34.8802    9.5055 F   0  0  0  0  0  0  0  0  0  0  0  0
   -2.2569  -36.6822    8.0366 C   0  0  0  0  0  0  0  0  0  0  0  0
   -3.1655  -37.6111    7.5270 C   0  0  0  0  0  0  0  0  0  0  0  0
   -5.1229  -39.9044    7.2186 N   0  0  0  0  0  0  0  0  0  0  0  0
   -6.1975  -40.4982    6.6744 N   0  0  0  0  0  0  0  0  0  0  0  0
   -6.2159  -41.8957    6.3179 C   0  0  0  0  0  0  0  0  0  0  0  0
   -5.6783  -42.1874    4.9396 C   0  0  1  0  0  0  0  0  0  0  0  0
   -6.3990  -41.5281    3.8209 C   0  0  0  0  0  0  0  0  0  0  0  0
   -5.7579  -40.2596    3.3103 C   0  0  0  0  0  0  0  0  0  0  0  0
   -4.2834  -40.3905    3.0760 C   0  0  2  0  0  0  0  0  0  0  0  0
   -3.8799  -40.1196    1.7111 N   0  0  0  0  0  0  0  0  0  0  0  0
   -3.7855  -41.7738    3.4350 C   0  0  0  0  0  0  0  0  0  0  0  0
   -4.1778  -42.0100    4.8708 C   0  0  0  0  0  0  0  0  0  0  0  0
   -7.1851  -39.5988    6.5172 C   0  0  0  0  0  0  0  0  0  0  0  0
   -8.4505  -39.6260    6.0448 N   0  0  0  0  0  0  0  0  0  0  0  0
  1  2  1  0
  2  3  1  0
  3  4  1  0
  4  5  1  0
  5  6  1  0
  6  7  2  0
  7  8  1  0
  8  9  2  0
  9 10  1  0
 10 11  1  0
 11 12  2  0
 12 13  1  0
 13 14  2  0
 14 15  1  0
 14 16  1  0
 16 17  2  0
 10 18  2  0
 18 19  1  0
 19 20  1  0
 21 20  1  1
 21 22  1  0
 22 23  1  0
 23 24  1  0
 24 25  1  6
 24 26  1  0
 26 27  1  0
 19 28  1  0
 28 29  2  0
 29  6  1  0
 28  9  1  0
 17 11  1  0
 27 21  1  0
M  CHG  1  25   1
M  END
>  <shape_align_shape_tanimoto>  (2) 
0.54959131937641559

>  <shape_align_color_tanimoto>  (2) 
0.11716356511059914

>  <metric>  (2) 
color

>  <metric_score>  (2) 
0.117

>  <template_pid>  (2) 
3TCP

>  <template_shape_score>  (2) 
0.550

>  <template_color_score>  (2) 
0.117

>  <template_combo_score>  (2) 
0.333

$$$$
3TCP_combo_pose
     RDKit          3D

 29 32  0  0  0  0  0  0  0  0999 V2000
  -10.8972  -41.3618    4.6343 C   0  0  0  0  0  0  0  0  0  0  0  0
  -10.8561  -40.1598    3.7476 C   0  0  0  0  0  0  0  0  0  0  0  0
  -10.2006  -38.9659    4.4033 C   0  0  0  0  0  0  0  0  0  0  0  0
  -10.8971  -38.5265    5.6476 C   0  0  0  0  0  0  0  0  0  0  0  0
  -10.2150  -37.3826    6.2173 N   0  0  0  0  0  0  0  0  0  0  0  0
   -8.8656  -37.4157    6.6644 C   0  0  0  0  0  0  0  0  0  0  0  0
   -8.2320  -36.3464    7.1841 N   0  0  0  0  0  0  0  0  0  0  0  0
   -6.9568  -36.3719    7.6111 C   0  0  0  0  0  0  0  0  0  0  0  0
   -6.2257  -37.5391    7.5283 C   0  0  0  0  0  0  0  0  0  0  0  0
   -4.9301  -37.8645    7.8770 C   0  0  0  0  0  0  0  0  0  0  0  0
   -3.9362  -36.9791    8.4672 C   0  0  0  0  0  0  0  0  0  0  0  0
   -2.6357  -36.9620    7.9944 C   0  0  0  0  0  0  0  0  0  0  0  0
   -1.6618  -36.1416    8.5214 C   0  0  0  0  0  0  0  0  0  0  0  0
   -1.9972  -35.3005    9.5660 C   0  0  0  0  0  0  0  0  0  0  0  0
   -1.0800  -34.4737   10.1216 F   0  0  0  0  0  0  0  0  0  0  0  0
   -3.2764  -35.3029   10.0470 C   0  0  0  0  0  0  0  0  0  0  0  0
   -4.2416  -36.1259    9.5136 C   0  0  0  0  0  0  0  0  0  0  0  0
   -4.8015  -39.1719    7.5491 N   0  0  0  0  0  0  0  0  0  0  0  0
   -5.9382  -39.6356    7.0302 N   0  0  0  0  0  0  0  0  0  0  0  0
   -6.2322  -40.9741    6.5496 C   0  0  0  0  0  0  0  0  0  0  0  0
   -5.8706  -41.0044    5.0794 C   0  0  1  0  0  0  0  0  0  0  0  0
   -4.3901  -40.6800    4.9839 C   0  0  0  0  0  0  0  0  0  0  0  0
   -3.9622  -40.8128    3.5548 C   0  0  0  0  0  0  0  0  0  0  0  0
   -4.0974  -42.2321    3.1102 C   0  0  2  0  0  0  0  0  0  0  0  0
   -4.5803  -42.2010    1.7414 N   0  0  0  0  0  0  0  0  0  0  0  0
   -4.9857  -43.0546    4.0062 C   0  0  0  0  0  0  0  0  0  0  0  0
   -6.2251  -42.2874    4.4131 C   0  0  0  0  0  0  0  0  0  0  0  0
   -6.8556  -38.6468    6.9989 C   0  0  0  0  0  0  0  0  0  0  0  0
   -8.1246  -38.5548    6.5929 N   0  0  0  0  0  0  0  0  0  0  0  0
  1  2  1  0
  2  3  1  0
  3  4  1  0
  4  5  1  0
  5  6  1  0
  6  7  2  0
  7  8  1  0
  8  9  2  0
  9 10  1  0
 10 11  1  0
 11 12  2  0
 12 13  1  0
 13 14  2  0
 14 15  1  0
 14 16  1  0
 16 17  2  0
 10 18  2  0
 18 19  1  0
 19 20  1  0
 21 20  1  1
 21 22  1  0
 22 23  1  0
 23 24  1  0
 24 25  1  6
 24 26  1  0
 26 27  1  0
 19 28  1  0
 28 29  2  0
 29  6  1  0
 28  9  1  0
 17 11  1  0
 27 21  1  0
M  CHG  1  25   1
M  END
>  <shape_align_shape_tanimoto>  (3) 
0.6547351035371517

>  <shape_align_color_tanimoto>  (3) 
0.065940174674392837

>  <metric>  (3) 
combo

>  <metric_score>  (3) 
0.360

>  <template_pid>  (3) 
3TCP

>  <template_shape_score>  (3) 
0.655

>  <template_color_score>  (3) 
0.066

>  <template_combo_score>  (3) 
0.360

$$$$
