5X4O_shape_pose
     RDKit          3D

 35 38  0  0  0  0  0  0  0  0999 V2000
   -5.1654   11.9412   -5.5131 C   0  0  0  0  0  0  0  0  0  0  0  0
   -5.5676   11.5315   -4.1243 N   0  0  0  0  0  0  0  0  0  0  0  0
   -6.9568   11.4806   -3.9487 C   0  0  0  0  0  0  0  0  0  0  0  0
   -7.5276   12.6385   -3.4795 N   0  0  0  0  0  0  0  0  0  0  0  0
   -8.8684   12.7935   -3.4181 C   0  0  0  0  0  0  0  0  0  0  0  0
   -9.7432   11.8040   -3.8191 C   0  0  0  0  0  0  0  0  0  0  0  0
   -9.1794   10.6386   -4.2881 C   0  0  0  0  0  0  0  0  0  0  0  0
   -7.7893   10.4715   -4.3523 C   0  0  0  0  0  0  0  0  0  0  0  0
   -7.3101    9.1607   -4.7610 C   0  0  0  0  0  0  0  0  0  0  0  0
   -7.3877    8.0928   -3.8259 N   0  0  0  0  0  0  0  0  0  0  0  0
   -7.3732    8.0518   -2.4324 C   0  0  0  0  0  0  0  0  0  0  0  0
   -7.2867    9.1620   -1.6245 N   0  0  0  0  0  0  0  0  0  0  0  0
   -7.2902    9.0201   -0.3009 C   0  0  0  0  0  0  0  0  0  0  0  0
   -7.2290   10.0697    0.6722 N   0  0  0  0  0  0  0  0  0  0  0  0
   -8.4917   10.2745    1.3598 C   0  0  0  0  0  0  0  0  0  0  0  0
   -9.6308   10.3869    0.5811 C   0  0  0  0  0  0  0  0  0  0  0  0
  -10.8676   10.5063    1.1712 C   0  0  0  0  0  0  0  0  0  0  0  0
  -10.9105   10.5059    2.5508 C   0  0  0  0  0  0  0  0  0  0  0  0
   -9.7872   10.3947    3.3444 C   0  0  0  0  0  0  0  0  0  0  0  0
   -8.5353   10.2766    2.7494 C   0  0  0  0  0  0  0  0  0  0  0  0
  -10.1470   10.3867    4.7834 C   0  0  0  0  0  0  0  0  0  0  0  0
  -11.6181   10.5781    4.7658 C   0  0  0  0  0  0  0  0  0  0  0  0
  -12.3898   10.6874    5.7729 O   0  0  0  0  0  0  0  0  0  0  0  0
  -12.0500   10.6206    3.3982 N   0  0  0  0  0  0  0  0  0  0  0  0
   -7.3798    7.7775    0.3006 N   0  0  0  0  0  0  0  0  0  0  0  0
   -7.4684    6.6732   -0.4325 C   0  0  0  0  0  0  0  0  0  0  0  0
   -7.4649    6.8022   -1.7979 C   0  0  0  0  0  0  0  0  0  0  0  0
   -7.5913    5.5347   -2.5776 C   0  0  0  0  0  0  0  0  0  0  0  0
   -8.7380    5.5221   -3.3693 F   0  0  0  0  0  0  0  0  0  0  0  0
   -6.4724    5.3182   -3.3195 F   0  0  0  0  0  0  0  0  0  0  0  0
   -7.7024    4.4433   -1.7102 F   0  0  0  0  0  0  0  0  0  0  0  0
   -4.2883   11.2019   -3.0666 S   0  0  0  0  0  0  0  0  0  0  0  0
   -4.1860    9.5515   -2.4771 C   0  0  0  0  0  0  0  0  0  0  0  0
   -2.9446   11.6145   -3.6888 O   0  0  0  0  0  0  0  0  0  0  0  0
   -4.3723   12.1082   -1.8308 O   0  0  0  0  0  0  0  0  0  0  0  0
  1  2  1  0
  2  3  1  0
  3  4  2  0
  4  5  1  0
  5  6  2  0
  6  7  1  0
  7  8  2  0
  8  9  1  0
  9 10  1  0
 10 11  1  0
 11 12  2  0
 12 13  1  0
 13 14  1  0
 14 15  1  0
 15 16  2  0
 16 17  1  0
 17 18  2  0
 18 19  1  0
 19 20  2  0
 19 21  1  0
 21 22  1  0
 22 23  2  0
 22 24  1  0
 13 25  2  0
 25 26  1  0
 26 27  2  0
 27 28  1  0
 28 29  1  0
 28 30  1  0
 28 31  1  0
  2 32  1  0
 32 33  1  0
 32 34  2  0
 32 35  2  0
  8  3  1  0
 27 11  1  0
 20 15  1  0
 24 18  1  0
M  END
>  <shape_align_shape_tanimoto>  (1) 
0.61021247867254336

>  <shape_align_color_tanimoto>  (1) 
0.060059610834072762

>  <metric>  (1) 
shape

>  <metric_score>  (1) 
0.610

>  <template_pid>  (1) 
5X4O

>  <template_shape_score>  (1) 
0.610

>  <template_color_score>  (1) 
0.060

>  <template_combo_score>  (1) 
0.335

$$$$
5X4O_color_pose
     RDKit          3D

 35 38  0  0  0  0  0  0  0  0999 V2000
   -7.1120   12.4135   -5.9073 C   0  0  0  0  0  0  0  0  0  0  0  0
   -7.7005   11.6466   -4.7959 N   0  0  0  0  0  0  0  0  0  0  0  0
   -6.9206   11.5429   -3.6293 C   0  0  0  0  0  0  0  0  0  0  0  0
   -7.1136   12.5407   -2.7074 N   0  0  0  0  0  0  0  0  0  0  0  0
   -6.4123   12.6051   -1.5658 C   0  0  0  0  0  0  0  0  0  0  0  0
   -5.4645   11.6523   -1.2872 C   0  0  0  0  0  0  0  0  0  0  0  0
   -5.2729   10.6573   -2.2053 C   0  0  0  0  0  0  0  0  0  0  0  0
   -6.0026   10.5804   -3.4027 C   0  0  0  0  0  0  0  0  0  0  0  0
   -5.7063    9.4408   -4.2706 C   0  0  0  0  0  0  0  0  0  0  0  0
   -6.6463    8.3673   -4.1429 N   0  0  0  0  0  0  0  0  0  0  0  0
   -7.0299    7.7637   -2.9143 C   0  0  0  0  0  0  0  0  0  0  0  0
   -6.5874    8.1669   -1.7102 N   0  0  0  0  0  0  0  0  0  0  0  0
   -6.9368    7.6412   -0.5305 C   0  0  0  0  0  0  0  0  0  0  0  0
   -6.3959    8.1901    0.6677 N   0  0  0  0  0  0  0  0  0  0  0  0
   -7.2366    9.0079    1.5121 C   0  0  0  0  0  0  0  0  0  0  0  0
   -6.7273    9.6934    2.5955 C   0  0  0  0  0  0  0  0  0  0  0  0
   -7.5478   10.4598    3.4125 C   0  0  0  0  0  0  0  0  0  0  0  0
   -8.9039   10.5408    3.1392 C   0  0  0  0  0  0  0  0  0  0  0  0
   -9.3914    9.8474    2.0510 C   0  0  0  0  0  0  0  0  0  0  0  0
   -8.5858    9.0835    1.2326 C   0  0  0  0  0  0  0  0  0  0  0  0
  -10.8760   10.0745    1.9547 C   0  0  0  0  0  0  0  0  0  0  0  0
  -11.1885   10.9838    3.0999 C   0  0  0  0  0  0  0  0  0  0  0  0
  -12.3235   11.4354    3.3894 O   0  0  0  0  0  0  0  0  0  0  0  0
   -9.9679   11.2373    3.7925 N   0  0  0  0  0  0  0  0  0  0  0  0
   -7.8090    6.6175   -0.5406 N   0  0  0  0  0  0  0  0  0  0  0  0
   -8.3255    6.1212   -1.6742 C   0  0  0  0  0  0  0  0  0  0  0  0
   -7.9367    6.6942   -2.8784 C   0  0  0  0  0  0  0  0  0  0  0  0
   -8.4961    6.1107   -4.1110 C   0  0  0  0  0  0  0  0  0  0  0  0
   -9.3785    5.0610   -3.8254 F   0  0  0  0  0  0  0  0  0  0  0  0
   -7.4613    5.4869   -4.8200 F   0  0  0  0  0  0  0  0  0  0  0  0
   -9.1845    6.9724   -4.9066 F   0  0  0  0  0  0  0  0  0  0  0  0
   -9.2531   10.9809   -5.0604 S   0  0  0  0  0  0  0  0  0  0  0  0
   -9.3043    9.7927   -6.3658 C   0  0  0  0  0  0  0  0  0  0  0  0
   -9.8067   10.3210   -3.8296 O   0  0  0  0  0  0  0  0  0  0  0  0
  -10.2009   12.0872   -5.4155 O   0  0  0  0  0  0  0  0  0  0  0  0
  1  2  1  0
  2  3  1  0
  3  4  2  0
  4  5  1  0
  5  6  2  0
  6  7  1  0
  7  8  2  0
  8  9  1  0
  9 10  1  0
 10 11  1  0
 11 12  2  0
 12 13  1  0
 13 14  1  0
 14 15  1  0
 15 16  2  0
 16 17  1  0
 17 18  2  0
 18 19  1  0
 19 20  2  0
 19 21  1  0
 21 22  1  0
 22 23  2  0
 22 24  1  0
 13 25  2  0
 25 26  1  0
 26 27  2  0
 27 28  1  0
 28 29  1  0
 28 30  1  0
 28 31  1  0
  2 32  1  0
 32 33  1  0
 32 34  2  0
 32 35  2  0
  8  3  1  0
 27 11  1  0
 20 15  1  0
 24 18  1  0
M  END
>  <shape_align_shape_tanimoto>  (2) 
0.55645969899213521

>  <shape_align_color_tanimoto>  (2) 
0.095541880400821108

>  <metric>  (2) 
color

>  <metric_score>  (2) 
0.096

>  <template_pid>  (2) 
5X4O

>  <template_shape_score>  (2) 
0.556

>  <template_color_score>  (2) 
0.096

>  <template_combo_score>  (2) 
0.326

$$$$
5X4O_combo_pose
     RDKit          3D

 35 38  0  0  0  0  0  0  0  0999 V2000
   -5.1654   11.9412   -5.5131 C   0  0  0  0  0  0  0  0  0  0  0  0
   -5.5676   11.5315   -4.1243 N   0  0  0  0  0  0  0  0  0  0  0  0
   -6.9568   11.4806   -3.9487 C   0  0  0  0  0  0  0  0  0  0  0  0
   -7.5276   12.6385   -3.4795 N   0  0  0  0  0  0  0  0  0  0  0  0
   -8.8684   12.7935   -3.4181 C   0  0  0  0  0  0  0  0  0  0  0  0
   -9.7432   11.8040   -3.8191 C   0  0  0  0  0  0  0  0  0  0  0  0
   -9.1794   10.6386   -4.2881 C   0  0  0  0  0  0  0  0  0  0  0  0
   -7.7893   10.4715   -4.3523 C   0  0  0  0  0  0  0  0  0  0  0  0
   -7.3101    9.1607   -4.7610 C   0  0  0  0  0  0  0  0  0  0  0  0
   -7.3877    8.0928   -3.8259 N   0  0  0  0  0  0  0  0  0  0  0  0
   -7.3732    8.0518   -2.4324 C   0  0  0  0  0  0  0  0  0  0  0  0
   -7.2867    9.1620   -1.6245 N   0  0  0  0  0  0  0  0  0  0  0  0
   -7.2902    9.0201   -0.3009 C   0  0  0  0  0  0  0  0  0  0  0  0
   -7.2290   10.0697    0.6722 N   0  0  0  0  0  0  0  0  0  0  0  0
   -8.4917   10.2745    1.3598 C   0  0  0  0  0  0  0  0  0  0  0  0
   -9.6308   10.3869    0.5811 C   0  0  0  0  0  0  0  0  0  0  0  0
  -10.8676   10.5063    1.1712 C   0  0  0  0  0  0  0  0  0  0  0  0
  -10.9105   10.5059    2.5508 C   0  0  0  0  0  0  0  0  0  0  0  0
   -9.7872   10.3947    3.3444 C   0  0  0  0  0  0  0  0  0  0  0  0
   -8.5353   10.2766    2.7494 C   0  0  0  0  0  0  0  0  0  0  0  0
  -10.1470   10.3867    4.7834 C   0  0  0  0  0  0  0  0  0  0  0  0
  -11.6181   10.5781    4.7658 C   0  0  0  0  0  0  0  0  0  0  0  0
  -12.3898   10.6874    5.7729 O   0  0  0  0  0  0  0  0  0  0  0  0
  -12.0500   10.6206    3.3982 N   0  0  0  0  0  0  0  0  0  0  0  0
   -7.3798    7.7775    0.3006 N   0  0  0  0  0  0  0  0  0  0  0  0
   -7.4684    6.6732   -0.4325 C   0  0  0  0  0  0  0  0  0  0  0  0
   -7.4649    6.8022   -1.7979 C   0  0  0  0  0  0  0  0  0  0  0  0
   -7.5913    5.5347   -2.5776 C   0  0  0  0  0  0  0  0  0  0  0  0
   -8.7380    5.5221   -3.3693 F   0  0  0  0  0  0  0  0  0  0  0  0
   -6.4724    5.3182   -3.3195 F   0  0  0  0  0  0  0  0  0  0  0  0
   -7.7024    4.4433   -1.7102 F   0  0  0  0  0  0  0  0  0  0  0  0
   -4.2883   11.2019   -3.0666 S   0  0  0  0  0  0  0  0  0  0  0  0
   -4.1860    9.5515   -2.4771 C   0  0  0  0  0  0  0  0  0  0  0  0
   -2.9446   11.6145   -3.6888 O   0  0  0  0  0  0  0  0  0  0  0  0
   -4.3723   12.1082   -1.8308 O   0  0  0  0  0  0  0  0  0  0  0  0
  1  2  1  0
  2  3  1  0
  3  4  2  0
  4  5  1  0
  5  6  2  0
  6  7  1  0
  7  8  2  0
  8  9  1  0
  9 10  1  0
 10 11  1  0
 11 12  2  0
 12 13  1  0
 13 14  1  0
 14 15  1  0
 15 16  2  0
 16 17  1  0
 17 18  2  0
 18 19  1  0
 19 20  2  0
 19 21  1  0
 21 22  1  0
 22 23  2  0
 22 24  1  0
 13 25  2  0
 25 26  1  0
 26 27  2  0
 27 28  1  0
 28 29  1  0
 28 30  1  0
 28 31  1  0
  2 32  1  0
 32 33  1  0
 32 34  2  0
 32 35  2  0
  8  3  1  0
 27 11  1  0
 20 15  1  0
 24 18  1  0
M  END
>  <shape_align_shape_tanimoto>  (3) 
0.61021247867254336

>  <shape_align_color_tanimoto>  (3) 
0.060059610834072762

>  <metric>  (3) 
combo

>  <metric_score>  (3) 
0.335

>  <template_pid>  (3) 
5X4O

>  <template_shape_score>  (3) 
0.610

>  <template_color_score>  (3) 
0.060

>  <template_combo_score>  (3) 
0.335

$$$$
