4BCC_shape_pose
     RDKit          3D

 39 42  0  0  0  0  0  0  0  0999 V2000
   14.2394  129.0529    3.4032 C   0  0  0  0  0  0  0  0  0  0  0  0
   14.9432  130.3698    3.6520 C   0  0  0  0  0  0  0  0  0  0  0  0
   14.5598  131.3662    2.6036 C   0  0  0  0  0  0  0  0  0  0  0  0
   14.4723  130.8375    5.0279 C   0  0  0  0  0  0  0  0  0  0  0  0
   16.3416  130.1562    3.6831 O   0  0  0  0  0  0  0  0  0  0  0  0
   17.2448  131.1866    3.8935 C   0  0  0  0  0  0  0  0  0  0  0  0
   16.7688  132.3363    4.0586 O   0  0  0  0  0  0  0  0  0  0  0  0
   18.6452  130.9229    3.9164 N   0  0  0  0  0  0  0  0  0  0  0  0
   19.6323  131.9794    4.1347 C   0  0  0  0  0  0  0  0  0  0  0  0
   19.7964  132.8025    2.8907 C   0  0  0  0  0  0  0  0  0  0  0  0
   19.0858  133.9460    2.5343 C   0  0  0  0  0  0  0  0  0  0  0  0
   19.5663  134.3504    1.3375 N   0  0  0  0  0  0  0  0  0  0  0  0
   19.0351  135.5388    0.6637 C   0  0  1  0  0  0  0  0  0  0  0  0
   19.9861  136.0759   -0.3813 C   0  0  0  0  0  0  0  0  0  0  0  0
   19.3636  135.4908   -1.6515 C   0  0  1  0  0  0  0  0  0  0  0  0
   20.0498  134.2516   -1.9155 C   0  0  0  0  0  0  0  0  0  0  0  0
   21.3456  134.3428   -2.0394 O   0  0  0  0  0  0  0  0  0  0  0  0
   19.5634  132.9422   -2.0648 N   0  0  0  0  0  0  0  0  0  0  0  0
   20.4876  131.8143   -2.3224 C   0  0  0  0  0  0  0  0  0  0  0  0
   19.7398  131.0772   -3.4085 C   0  0  0  0  0  0  0  0  0  0  0  0
   18.3113  131.5565   -3.3569 C   0  0  0  0  0  0  0  0  0  0  0  0
   18.2622  132.3376   -2.0323 C   0  0  1  0  0  0  0  0  0  0  0  0
   18.1558  131.3056   -0.9531 C   0  0  0  0  0  0  0  0  0  0  0  0
   17.0137  130.7448   -0.8184 N   0  0  0  0  0  0  0  0  0  0  0  0
   17.9613  135.5156   -1.4531 N   0  0  0  0  0  0  0  0  0  0  0  0
   16.8975  135.8082   -2.3931 C   0  0  0  0  0  0  0  0  0  0  0  0
   17.2751  136.0757   -3.5560 O   0  0  0  0  0  0  0  0  0  0  0  0
   15.4926  135.7743   -1.9380 C   0  0  0  0  0  0  0  0  0  0  0  0
   14.5560  136.3058   -2.9668 C   0  0  0  0  0  0  0  0  0  0  0  0
   14.5099  135.5848   -4.2683 C   0  0  0  0  0  0  0  0  0  0  0  0
   14.0982  134.1566   -4.1319 C   0  0  0  0  0  0  0  0  0  0  0  0
   15.0165  133.1438   -3.9544 C   0  0  0  0  0  0  0  0  0  0  0  0
   14.5391  131.8558   -3.8353 C   0  0  0  0  0  0  0  0  0  0  0  0
   13.1999  131.5349   -3.8848 C   0  0  0  0  0  0  0  0  0  0  0  0
   12.2875  132.5382   -4.0609 C   0  0  0  0  0  0  0  0  0  0  0  0
   12.7471  133.8200   -4.1804 C   0  0  0  0  0  0  0  0  0  0  0  0
   17.7497  135.2097   -0.0320 C   0  0  0  0  0  0  0  0  0  0  0  0
   20.5070  133.5285    0.9644 N   0  0  0  0  0  0  0  0  0  0  0  0
   20.6782  132.5685    1.8860 N   0  0  0  0  0  0  0  0  0  0  0  0
  1  2  1  0
  2  3  1  0
  2  4  1  0
  2  5  1  0
  5  6  1  0
  6  7  2  0
  6  8  1  0
  8  9  1  0
  9 10  1  0
 10 11  2  0
 11 12  1  0
 13 12  1  6
 13 14  1  0
 14 15  1  0
 15 16  1  1
 16 17  2  0
 16 18  1  0
 18 19  1  0
 19 20  1  0
 20 21  1  0
 21 22  1  0
 22 23  1  1
 23 24  2  0
 15 25  1  0
 25 26  1  0
 26 27  2  0
 26 28  1  0
 28 29  1  0
 29 30  1  0
 30 31  1  0
 31 32  2  0
 32 33  1  0
 33 34  2  0
 34 35  1  0
 35 36  2  0
 25 37  1  0
 12 38  1  0
 38 39  2  0
 39 10  1  0
 37 13  1  0
 22 18  1  0
 36 31  1  0
M  END
>  <shape_align_shape_tanimoto>  (1) 
0.58269860189353007

>  <shape_align_color_tanimoto>  (1) 
0.013930920409918805

>  <metric>  (1) 
shape

>  <metric_score>  (1) 
0.583

>  <template_pid>  (1) 
4BCC

>  <template_shape_score>  (1) 
0.583

>  <template_color_score>  (1) 
0.014

>  <template_combo_score>  (1) 
0.298

$$$$
4BCC_color_pose
     RDKit          3D

 39 42  0  0  0  0  0  0  0  0999 V2000
   24.5291  135.6329    6.6138 C   0  0  0  0  0  0  0  0  0  0  0  0
   23.0851  135.1997    6.5301 C   0  0  0  0  0  0  0  0  0  0  0  0
   22.7401  134.5733    7.8853 C   0  0  0  0  0  0  0  0  0  0  0  0
   22.2527  136.4347    6.3169 C   0  0  0  0  0  0  0  0  0  0  0  0
   22.9438  134.2345    5.5040 O   0  0  0  0  0  0  0  0  0  0  0  0
   21.6865  133.6887    5.2489 C   0  0  0  0  0  0  0  0  0  0  0  0
   20.6643  134.0233    5.9003 O   0  0  0  0  0  0  0  0  0  0  0  0
   21.5988  132.7209    4.2046 N   0  0  0  0  0  0  0  0  0  0  0  0
   20.2908  132.1301    3.9144 C   0  0  0  0  0  0  0  0  0  0  0  0
   19.5430  133.1963    3.1551 C   0  0  0  0  0  0  0  0  0  0  0  0
   19.5180  133.3766    1.7762 C   0  0  0  0  0  0  0  0  0  0  0  0
   18.7263  134.4476    1.5386 N   0  0  0  0  0  0  0  0  0  0  0  0
   18.3708  135.0540    0.2676 C   0  0  1  0  0  0  0  0  0  0  0  0
   19.4043  134.8711   -0.8023 C   0  0  0  0  0  0  0  0  0  0  0  0
   18.5979  134.7557   -2.0641 C   0  0  1  0  0  0  0  0  0  0  0  0
   18.7962  133.4388   -2.7287 C   0  0  0  0  0  0  0  0  0  0  0  0
   17.7838  132.6894   -2.7980 O   0  0  0  0  0  0  0  0  0  0  0  0
   20.0596  133.0639   -3.2495 N   0  0  0  0  0  0  0  0  0  0  0  0
   21.2984  133.8452   -3.2374 C   0  0  0  0  0  0  0  0  0  0  0  0
   22.3853  132.8045   -3.1201 C   0  0  0  0  0  0  0  0  0  0  0  0
   21.7051  131.4590   -3.2399 C   0  0  0  0  0  0  0  0  0  0  0  0
   20.3671  131.8056   -3.9044 C   0  0  1  0  0  0  0  0  0  0  0  0
   19.3778  130.7378   -3.5667 C   0  0  0  0  0  0  0  0  0  0  0  0
   18.9575  129.8672   -4.3745 N   0  0  0  0  0  0  0  0  0  0  0  0
   17.2391  134.9723   -1.6864 N   0  0  0  0  0  0  0  0  0  0  0  0
   16.1752  135.5997   -2.4170 C   0  0  0  0  0  0  0  0  0  0  0  0
   15.0591  135.6603   -1.8561 O   0  0  0  0  0  0  0  0  0  0  0  0
   16.4974  136.1176   -3.7547 C   0  0  0  0  0  0  0  0  0  0  0  0
   15.3638  136.3892   -4.6643 C   0  0  0  0  0  0  0  0  0  0  0  0
   14.5289  135.2708   -5.1343 C   0  0  0  0  0  0  0  0  0  0  0  0
   13.8285  134.4368   -4.1690 C   0  0  0  0  0  0  0  0  0  0  0  0
   12.5801  134.7896   -3.6956 C   0  0  0  0  0  0  0  0  0  0  0  0
   11.8749  133.9965   -2.8005 C   0  0  0  0  0  0  0  0  0  0  0  0
   12.4647  132.8053   -2.3765 C   0  0  0  0  0  0  0  0  0  0  0  0
   13.7173  132.4265   -2.8358 C   0  0  0  0  0  0  0  0  0  0  0  0
   14.4049  133.2370   -3.7320 C   0  0  0  0  0  0  0  0  0  0  0  0
   17.1521  134.3999   -0.3248 C   0  0  0  0  0  0  0  0  0  0  0  0
   18.2939  134.8953    2.6913 N   0  0  0  0  0  0  0  0  0  0  0  0
   18.7696  134.1600    3.6914 N   0  0  0  0  0  0  0  0  0  0  0  0
  1  2  1  0
  2  3  1  0
  2  4  1  0
  2  5  1  0
  5  6  1  0
  6  7  2  0
  6  8  1  0
  8  9  1  0
  9 10  1  0
 10 11  2  0
 11 12  1  0
 13 12  1  1
 13 14  1  0
 14 15  1  0
 15 16  1  1
 16 17  2  0
 16 18  1  0
 18 19  1  0
 19 20  1  0
 20 21  1  0
 21 22  1  0
 22 23  1  1
 23 24  2  0
 15 25  1  0
 25 26  1  0
 26 27  2  0
 26 28  1  0
 28 29  1  0
 29 30  1  0
 30 31  1  0
 31 32  2  0
 32 33  1  0
 33 34  2  0
 34 35  1  0
 35 36  2  0
 25 37  1  0
 12 38  1  0
 38 39  2  0
 39 10  1  0
 37 13  1  0
 22 18  1  0
 36 31  1  0
M  END
>  <shape_align_shape_tanimoto>  (2) 
0.44160004714479795

>  <shape_align_color_tanimoto>  (2) 
0.1118949701958009

>  <metric>  (2) 
color

>  <metric_score>  (2) 
0.112

>  <template_pid>  (2) 
4BCC

>  <template_shape_score>  (2) 
0.442

>  <template_color_score>  (2) 
0.112

>  <template_combo_score>  (2) 
0.277

$$$$
4BCC_combo_pose
     RDKit          3D

 39 42  0  0  0  0  0  0  0  0999 V2000
   17.3200  134.1284    3.1946 C   0  0  0  0  0  0  0  0  0  0  0  0
   18.6348  134.2048    3.9262 C   0  0  0  0  0  0  0  0  0  0  0  0
   18.7668  135.5906    4.5496 C   0  0  0  0  0  0  0  0  0  0  0  0
   18.7469  133.1651    5.0084 C   0  0  0  0  0  0  0  0  0  0  0  0
   19.6929  134.0669    3.0317 O   0  0  0  0  0  0  0  0  0  0  0  0
   19.9646  133.0102    2.2099 C   0  0  0  0  0  0  0  0  0  0  0  0
   19.1993  132.0134    2.2210 O   0  0  0  0  0  0  0  0  0  0  0  0
   21.0792  132.9506    1.3172 N   0  0  0  0  0  0  0  0  0  0  0  0
   21.3064  131.7936    0.4719 C   0  0  0  0  0  0  0  0  0  0  0  0
   20.3654  131.7970   -0.6788 C   0  0  0  0  0  0  0  0  0  0  0  0
   20.5430  132.3679   -1.9282 C   0  0  0  0  0  0  0  0  0  0  0  0
   19.4176  132.0989   -2.6016 N   0  0  0  0  0  0  0  0  0  0  0  0
   19.1128  132.4853   -3.9605 C   0  0  1  0  0  0  0  0  0  0  0  0
   17.6834  132.1264   -4.3048 C   0  0  0  0  0  0  0  0  0  0  0  0
   16.8819  133.4017   -4.1720 C   0  0  1  0  0  0  0  0  0  0  0  0
   15.5646  133.1514   -3.6062 C   0  0  0  0  0  0  0  0  0  0  0  0
   15.4266  132.1009   -2.8866 O   0  0  0  0  0  0  0  0  0  0  0  0
   14.4705  134.0176   -3.8295 N   0  0  0  0  0  0  0  0  0  0  0  0
   14.4291  135.2568   -4.6226 C   0  0  0  0  0  0  0  0  0  0  0  0
   12.9521  135.4691   -4.9241 C   0  0  0  0  0  0  0  0  0  0  0  0
   12.3465  135.0599   -3.5974 C   0  0  0  0  0  0  0  0  0  0  0  0
   13.1289  133.8114   -3.2790 C   0  0  1  0  0  0  0  0  0  0  0  0
   12.4282  132.6633   -3.9137 C   0  0  0  0  0  0  0  0  0  0  0  0
   12.3292  132.6190   -5.1983 N   0  0  0  0  0  0  0  0  0  0  0  0
   17.7572  134.2470   -3.4222 N   0  0  0  0  0  0  0  0  0  0  0  0
   17.4706  135.1414   -2.3316 C   0  0  0  0  0  0  0  0  0  0  0  0
   16.2863  135.2043   -1.9642 O   0  0  0  0  0  0  0  0  0  0  0  0
   18.5605  135.9102   -1.7273 C   0  0  0  0  0  0  0  0  0  0  0  0
   18.1745  136.8301   -0.6217 C   0  0  0  0  0  0  0  0  0  0  0  0
   17.1893  137.8990   -0.9862 C   0  0  0  0  0  0  0  0  0  0  0  0
   17.7126  138.7836   -2.0596 C   0  0  0  0  0  0  0  0  0  0  0  0
   18.4361  139.9199   -1.7228 C   0  0  0  0  0  0  0  0  0  0  0  0
   18.9411  140.7705   -2.7087 C   0  0  0  0  0  0  0  0  0  0  0  0
   18.7201  140.4819   -4.0470 C   0  0  0  0  0  0  0  0  0  0  0  0
   18.0039  139.3581   -4.3997 C   0  0  0  0  0  0  0  0  0  0  0  0
   17.5130  138.5293   -3.4020 C   0  0  0  0  0  0  0  0  0  0  0  0
   19.0939  134.0193   -4.0014 C   0  0  0  0  0  0  0  0  0  0  0  0
   18.6005  131.4079   -1.8187 N   0  0  0  0  0  0  0  0  0  0  0  0
   19.1464  131.2061   -0.6395 N   0  0  0  0  0  0  0  0  0  0  0  0
  1  2  1  0
  2  3  1  0
  2  4  1  0
  2  5  1  0
  5  6  1  0
  6  7  2  0
  6  8  1  0
  8  9  1  0
  9 10  1  0
 10 11  2  0
 11 12  1  0
 13 12  1  1
 13 14  1  0
 14 15  1  0
 15 16  1  1
 16 17  2  0
 16 18  1  0
 18 19  1  0
 19 20  1  0
 20 21  1  0
 21 22  1  0
 22 23  1  6
 23 24  2  0
 15 25  1  0
 25 26  1  0
 26 27  2  0
 26 28  1  0
 28 29  1  0
 29 30  1  0
 30 31  1  0
 31 32  2  0
 32 33  1  0
 33 34  2  0
 34 35  1  0
 35 36  2  0
 25 37  1  0
 12 38  1  0
 38 39  2  0
 39 10  1  0
 37 13  1  0
 22 18  1  0
 36 31  1  0
M  END
>  <shape_align_shape_tanimoto>  (3) 
0.50468921519682441

>  <shape_align_color_tanimoto>  (3) 
0.094899620867078885

>  <metric>  (3) 
combo

>  <metric_score>  (3) 
0.300

>  <template_pid>  (3) 
4BCC

>  <template_shape_score>  (3) 
0.505

>  <template_color_score>  (3) 
0.095

>  <template_combo_score>  (3) 
0.300

$$$$
