4CLI_shape_pose
     RDKit          3D

 30 33  0  0  0  0  0  0  0  0999 V2000
  101.3456  114.5744   99.0065 C   0  0  0  0  0  0  0  0  0  0  0  0
  100.7607  113.1975   98.6402 C   0  0  1  0  0  0  0  0  0  0  0  0
   99.4813  113.2033   98.4689 O   0  0  0  0  0  0  0  0  0  0  0  0
   98.2034  113.2089   98.2980 C   0  0  0  0  0  0  0  0  0  0  0  0
   97.6972  111.8798   98.1168 C   0  0  0  0  0  0  0  0  0  0  0  0
   96.4152  111.6109   97.8792 C   0  0  0  0  0  0  0  0  0  0  0  0
   95.4988  112.6139   97.8164 C   0  0  0  0  0  0  0  0  0  0  0  0
   95.9167  113.8710   97.9919 N   0  0  0  0  0  0  0  0  0  0  0  0
   97.2082  114.1485   98.2200 C   0  0  0  0  0  0  0  0  0  0  0  0
   97.6544  115.5135   98.4079 N   0  0  0  0  0  0  0  0  0  0  0  0
   96.1509  110.1926   97.5379 C   0  0  0  0  0  0  0  0  0  0  0  0
   96.8909  109.4428   96.7036 C   0  0  0  0  0  0  0  0  0  0  0  0
   96.1865  108.1924   96.7927 N   0  0  0  0  0  0  0  0  0  0  0  0
   95.1927  108.2657   97.5757 N   0  0  0  0  0  0  0  0  0  0  0  0
   94.2710  107.1809   97.8870 C   0  0  0  0  0  0  0  0  0  0  0  0
   95.0825  109.4838   98.0957 C   0  0  0  0  0  0  0  0  0  0  0  0
   94.0930  109.9679   99.0108 C   0  0  0  0  0  0  0  0  0  0  0  0
   93.2853  110.3455   99.7680 N   0  0  0  0  0  0  0  0  0  0  0  0
   98.0265  109.5557   95.8312 C   0  0  0  0  0  0  0  0  0  0  0  0
   99.2348  110.1730   96.1734 N   0  0  0  0  0  0  0  0  0  0  0  0
  100.2209  109.3415   96.9070 C   0  0  0  0  0  0  0  0  0  0  0  0
   99.7599  111.4772   95.9503 C   0  0  0  0  0  0  0  0  0  0  0  0
   99.0547  112.2332   95.3301 O   0  0  0  0  0  0  0  0  0  0  0  0
  101.0612  111.9893   96.3782 C   0  0  0  0  0  0  0  0  0  0  0  0
  102.0156  111.6680   95.3577 C   0  0  0  0  0  0  0  0  0  0  0  0
  103.3229  111.9988   95.4179 C   0  0  0  0  0  0  0  0  0  0  0  0
  103.7895  112.6846   96.5110 C   0  0  0  0  0  0  0  0  0  0  0  0
  105.0968  113.0245   96.5903 F   0  0  0  0  0  0  0  0  0  0  0  0
  102.8839  112.9978   97.4905 C   0  0  0  0  0  0  0  0  0  0  0  0
  101.5246  112.6531   97.4252 C   0  0  0  0  0  0  0  0  0  0  0  0
  2  1  1  6
  2  3  1  0
  3  4  1  0
  4  5  1  0
  5  6  2  0
  6  7  1  0
  7  8  2  0
  8  9  1  0
  9 10  1  0
  6 11  1  0
 11 12  1  0
 12 13  2  0
 13 14  1  0
 14 15  1  0
 14 16  1  0
 16 17  1  0
 17 18  3  0
 12 19  1  0
 19 20  1  0
 20 21  1  0
 20 22  1  0
 22 23  2  0
 22 24  1  0
 24 25  2  0
 25 26  1  0
 26 27  2  0
 27 28  1  0
 27 29  1  0
 29 30  2  0
 30  2  1  0
  9  4  2  0
 16 11  2  0
 30 24  1  0
M  END
>  <shape_align_shape_tanimoto>  (1) 
0.68748550867041824

>  <shape_align_color_tanimoto>  (1) 
0.057955870310880273

>  <metric>  (1) 
shape

>  <metric_score>  (1) 
0.687

>  <template_pid>  (1) 
4CLI

>  <template_shape_score>  (1) 
0.687

>  <template_color_score>  (1) 
0.058

>  <template_combo_score>  (1) 
0.373

$$$$
4CLI_color_pose
     RDKit          3D

 30 33  0  0  0  0  0  0  0  0999 V2000
   94.0632  111.2911   99.4124 C   0  0  0  0  0  0  0  0  0  0  0  0
   95.3603  111.1189   98.6153 C   0  0  1  0  0  0  0  0  0  0  0  0
   96.3504  111.7597   99.3690 O   0  0  0  0  0  0  0  0  0  0  0  0
   97.1339  112.7579   98.7067 C   0  0  0  0  0  0  0  0  0  0  0  0
   98.4812  112.3515   98.5616 C   0  0  0  0  0  0  0  0  0  0  0  0
   99.3965  113.1064   97.9051 C   0  0  0  0  0  0  0  0  0  0  0  0
   98.8956  114.3331   97.4135 C   0  0  0  0  0  0  0  0  0  0  0  0
   97.6258  114.7136   97.5721 N   0  0  0  0  0  0  0  0  0  0  0  0
   96.7400  113.9328   98.2137 C   0  0  0  0  0  0  0  0  0  0  0  0
   95.3767  114.3235   98.3864 N   0  0  0  0  0  0  0  0  0  0  0  0
  100.7043  112.6632   97.4150 C   0  0  0  0  0  0  0  0  0  0  0  0
  100.9819  111.2543   97.2067 C   0  0  0  0  0  0  0  0  0  0  0  0
  102.2003  111.2252   96.6391 N   0  0  0  0  0  0  0  0  0  0  0  0
  102.6539  112.4501   96.5023 N   0  0  0  0  0  0  0  0  0  0  0  0
  103.9460  112.7460   95.9179 C   0  0  0  0  0  0  0  0  0  0  0  0
  101.7880  113.3622   96.9580 C   0  0  0  0  0  0  0  0  0  0  0  0
  101.9837  114.7839   96.9577 C   0  0  0  0  0  0  0  0  0  0  0  0
  102.1647  115.9478   96.9587 N   0  0  0  0  0  0  0  0  0  0  0  0
   99.9863  110.3998   97.6930 C   0  0  0  0  0  0  0  0  0  0  0  0
   99.0014  109.4930   97.4015 N   0  0  0  0  0  0  0  0  0  0  0  0
   99.0366  108.0346   97.4909 C   0  0  0  0  0  0  0  0  0  0  0  0
   97.7250  109.9465   96.9035 C   0  0  0  0  0  0  0  0  0  0  0  0
   97.6790  110.9396   96.2797 O   0  0  0  0  0  0  0  0  0  0  0  0
   96.4152  109.3006   97.1247 C   0  0  0  0  0  0  0  0  0  0  0  0
   96.3104  108.1255   96.4383 C   0  0  0  0  0  0  0  0  0  0  0  0
   95.1943  107.3832   96.5633 C   0  0  0  0  0  0  0  0  0  0  0  0
   94.1892  107.8415   97.3860 C   0  0  0  0  0  0  0  0  0  0  0  0
   93.0665  107.0856   97.5101 F   0  0  0  0  0  0  0  0  0  0  0  0
   94.2965  109.0220   98.0690 C   0  0  0  0  0  0  0  0  0  0  0  0
   95.4621  109.8418   97.9630 C   0  0  0  0  0  0  0  0  0  0  0  0
  2  1  1  1
  2  3  1  0
  3  4  1  0
  4  5  1  0
  5  6  2  0
  6  7  1  0
  7  8  2  0
  8  9  1  0
  9 10  1  0
  6 11  1  0
 11 12  1  0
 12 13  2  0
 13 14  1  0
 14 15  1  0
 14 16  1  0
 16 17  1  0
 17 18  3  0
 12 19  1  0
 19 20  1  0
 20 21  1  0
 20 22  1  0
 22 23  2  0
 22 24  1  0
 24 25  2  0
 25 26  1  0
 26 27  2  0
 27 28  1  0
 27 29  1  0
 29 30  2  0
 30  2  1  0
  9  4  2  0
 16 11  2  0
 30 24  1  0
M  END
>  <shape_align_shape_tanimoto>  (2) 
0.63244622476276224

>  <shape_align_color_tanimoto>  (2) 
0.19347358867873829

>  <metric>  (2) 
color

>  <metric_score>  (2) 
0.193

>  <template_pid>  (2) 
4CLI

>  <template_shape_score>  (2) 
0.632

>  <template_color_score>  (2) 
0.193

>  <template_combo_score>  (2) 
0.413

$$$$
4CLI_combo_pose
     RDKit          3D

 30 33  0  0  0  0  0  0  0  0999 V2000
   94.0632  111.2911   99.4124 C   0  0  0  0  0  0  0  0  0  0  0  0
   95.3603  111.1189   98.6153 C   0  0  1  0  0  0  0  0  0  0  0  0
   96.3504  111.7597   99.3690 O   0  0  0  0  0  0  0  0  0  0  0  0
   97.1339  112.7579   98.7067 C   0  0  0  0  0  0  0  0  0  0  0  0
   98.4812  112.3515   98.5616 C   0  0  0  0  0  0  0  0  0  0  0  0
   99.3965  113.1064   97.9051 C   0  0  0  0  0  0  0  0  0  0  0  0
   98.8956  114.3331   97.4135 C   0  0  0  0  0  0  0  0  0  0  0  0
   97.6258  114.7136   97.5721 N   0  0  0  0  0  0  0  0  0  0  0  0
   96.7400  113.9328   98.2137 C   0  0  0  0  0  0  0  0  0  0  0  0
   95.3767  114.3235   98.3864 N   0  0  0  0  0  0  0  0  0  0  0  0
  100.7043  112.6632   97.4150 C   0  0  0  0  0  0  0  0  0  0  0  0
  100.9819  111.2543   97.2067 C   0  0  0  0  0  0  0  0  0  0  0  0
  102.2003  111.2252   96.6391 N   0  0  0  0  0  0  0  0  0  0  0  0
  102.6539  112.4501   96.5023 N   0  0  0  0  0  0  0  0  0  0  0  0
  103.9460  112.7460   95.9179 C   0  0  0  0  0  0  0  0  0  0  0  0
  101.7880  113.3622   96.9580 C   0  0  0  0  0  0  0  0  0  0  0  0
  101.9837  114.7839   96.9577 C   0  0  0  0  0  0  0  0  0  0  0  0
  102.1647  115.9478   96.9587 N   0  0  0  0  0  0  0  0  0  0  0  0
   99.9863  110.3998   97.6930 C   0  0  0  0  0  0  0  0  0  0  0  0
   99.0014  109.4930   97.4015 N   0  0  0  0  0  0  0  0  0  0  0  0
   99.0366  108.0346   97.4909 C   0  0  0  0  0  0  0  0  0  0  0  0
   97.7250  109.9465   96.9035 C   0  0  0  0  0  0  0  0  0  0  0  0
   97.6790  110.9396   96.2797 O   0  0  0  0  0  0  0  0  0  0  0  0
   96.4152  109.3006   97.1247 C   0  0  0  0  0  0  0  0  0  0  0  0
   96.3104  108.1255   96.4383 C   0  0  0  0  0  0  0  0  0  0  0  0
   95.1943  107.3832   96.5633 C   0  0  0  0  0  0  0  0  0  0  0  0
   94.1892  107.8415   97.3860 C   0  0  0  0  0  0  0  0  0  0  0  0
   93.0665  107.0856   97.5101 F   0  0  0  0  0  0  0  0  0  0  0  0
   94.2965  109.0220   98.0690 C   0  0  0  0  0  0  0  0  0  0  0  0
   95.4621  109.8418   97.9630 C   0  0  0  0  0  0  0  0  0  0  0  0
  2  1  1  1
  2  3  1  0
  3  4  1  0
  4  5  1  0
  5  6  2  0
  6  7  1  0
  7  8  2  0
  8  9  1  0
  9 10  1  0
  6 11  1  0
 11 12  1  0
 12 13  2  0
 13 14  1  0
 14 15  1  0
 14 16  1  0
 16 17  1  0
 17 18  3  0
 12 19  1  0
 19 20  1  0
 20 21  1  0
 20 22  1  0
 22 23  2  0
 22 24  1  0
 24 25  2  0
 25 26  1  0
 26 27  2  0
 27 28  1  0
 27 29  1  0
 29 30  2  0
 30  2  1  0
  9  4  2  0
 16 11  2  0
 30 24  1  0
M  END
>  <shape_align_shape_tanimoto>  (3) 
0.63244622476276224

>  <shape_align_color_tanimoto>  (3) 
0.19347358867873829

>  <metric>  (3) 
combo

>  <metric_score>  (3) 
0.413

>  <template_pid>  (3) 
4CLI

>  <template_shape_score>  (3) 
0.632

>  <template_color_score>  (3) 
0.193

>  <template_combo_score>  (3) 
0.413

$$$$
