5UIT_shape_pose
     RDKit          3D

 25 27  0  0  0  0  0  0  0  0999 V2000
   -8.3665  -19.3375  -35.0180 C   0  0  0  0  0  0  0  0  0  0  0  0
   -8.5226  -18.4930  -36.2669 C   0  0  0  0  0  0  0  0  0  0  0  0
   -9.5505  -19.1216  -37.1762 C   0  0  0  0  0  0  0  0  0  0  0  0
   -7.3225  -18.2692  -36.9277 O   0  0  0  0  0  0  0  0  0  0  0  0
   -6.6700  -17.1083  -37.1841 C   0  0  0  0  0  0  0  0  0  0  0  0
   -7.0845  -15.8453  -36.8225 C   0  0  0  0  0  0  0  0  0  0  0  0
   -6.3771  -14.6969  -37.1114 C   0  0  0  0  0  0  0  0  0  0  0  0
   -6.8601  -13.4382  -36.7109 C   0  0  0  0  0  0  0  0  0  0  0  0
   -8.0382  -13.4247  -36.0364 O   0  0  0  0  0  0  0  0  0  0  0  0
   -8.7923  -12.4130  -35.5121 C   0  0  0  0  0  0  0  0  0  0  0  0
   -9.3497  -11.3789  -36.4204 C   0  0  2  0  0  0  0  0  0  0  0  0
   -8.3652  -10.4584  -37.0757 C   0  0  0  0  0  0  0  0  0  0  0  0
   -9.2440   -9.2129  -37.3185 C   0  0  0  0  0  0  0  0  0  0  0  0
   -9.8790   -9.1096  -35.9805 C   0  0  0  0  0  0  0  0  0  0  0  0
  -10.1470   -8.0552  -35.3525 O   0  0  0  0  0  0  0  0  0  0  0  0
  -10.1139  -10.4469  -35.5719 N   0  0  0  0  0  0  0  0  0  0  0  0
   -6.0951  -12.3991  -37.0433 N   0  0  0  0  0  0  0  0  0  0  0  0
   -4.9342  -12.4823  -37.7129 C   0  0  0  0  0  0  0  0  0  0  0  0
   -4.4375  -13.7035  -38.1174 C   0  0  0  0  0  0  0  0  0  0  0  0
   -5.1885  -14.8158  -37.8003 C   0  0  0  0  0  0  0  0  0  0  0  0
   -4.7285  -16.0587  -38.1859 C   0  0  0  0  0  0  0  0  0  0  0  0
   -5.4594  -17.1890  -37.8818 C   0  0  0  0  0  0  0  0  0  0  0  0
   -4.9664  -18.5005  -38.2931 C   0  0  0  0  0  0  0  0  0  0  0  0
   -3.7400  -18.6083  -39.0040 N   0  0  0  0  0  0  0  0  0  0  0  0
   -5.6276  -19.5358  -38.0182 O   0  0  0  0  0  0  0  0  0  0  0  0
  1  2  1  0
  2  3  1  0
  2  4  1  0
  4  5  1  0
  5  6  2  0
  6  7  1  0
  7  8  2  0
  8  9  1  0
  9 10  1  0
 11 10  1  1
 11 12  1  0
 12 13  1  0
 13 14  1  0
 14 15  2  0
 14 16  1  0
  8 17  1  0
 17 18  2  0
 18 19  1  0
 19 20  2  0
 20 21  1  0
 21 22  2  0
 22 23  1  0
 23 24  1  0
 23 25  2  0
 22  5  1  0
 20  7  1  0
 16 11  1  0
M  END
>  <shape_align_shape_tanimoto>  (1) 
0.69114781566030403

>  <shape_align_color_tanimoto>  (1) 
0.14729304684175729

>  <metric>  (1) 
shape

>  <metric_score>  (1) 
0.691

>  <template_pid>  (1) 
5UIT

>  <template_shape_score>  (1) 
0.691

>  <template_color_score>  (1) 
0.147

>  <template_combo_score>  (1) 
0.419

$$$$
5UIT_color_pose
     RDKit          3D

 25 27  0  0  0  0  0  0  0  0999 V2000
   -9.0968  -18.6557  -35.6214 C   0  0  0  0  0  0  0  0  0  0  0  0
   -8.1829  -18.7793  -36.8622 C   0  0  0  0  0  0  0  0  0  0  0  0
   -9.1505  -18.9370  -38.0649 C   0  0  0  0  0  0  0  0  0  0  0  0
   -7.4380  -17.7214  -37.0215 O   0  0  0  0  0  0  0  0  0  0  0  0
   -6.7057  -16.6815  -37.1781 C   0  0  0  0  0  0  0  0  0  0  0  0
   -7.3134  -15.4041  -37.2439 C   0  0  0  0  0  0  0  0  0  0  0  0
   -6.5874  -14.2576  -37.4100 C   0  0  0  0  0  0  0  0  0  0  0  0
   -7.2469  -13.0411  -37.4654 C   0  0  0  0  0  0  0  0  0  0  0  0
   -8.6223  -13.0403  -37.3493 O   0  0  0  0  0  0  0  0  0  0  0  0
   -9.3114  -11.8141  -37.4004 C   0  0  0  0  0  0  0  0  0  0  0  0
   -8.9117  -10.8705  -36.3170 C   0  0  2  0  0  0  0  0  0  0  0  0
   -9.3132  -11.2911  -34.9362 C   0  0  0  0  0  0  0  0  0  0  0  0
   -9.3447   -9.9716  -34.1965 C   0  0  0  0  0  0  0  0  0  0  0  0
   -9.6769   -8.9648  -35.2094 C   0  0  0  0  0  0  0  0  0  0  0  0
   -9.8896   -7.7455  -34.9822 O   0  0  0  0  0  0  0  0  0  0  0  0
   -9.7090   -9.6427  -36.4841 N   0  0  0  0  0  0  0  0  0  0  0  0
   -6.4931  -11.9442  -37.6297 N   0  0  0  0  0  0  0  0  0  0  0  0
   -5.1327  -11.9977  -37.7394 C   0  0  0  0  0  0  0  0  0  0  0  0
   -4.4938  -13.2330  -37.6798 C   0  0  0  0  0  0  0  0  0  0  0  0
   -5.2206  -14.3693  -37.5147 C   0  0  0  0  0  0  0  0  0  0  0  0
   -4.5616  -15.5750  -37.4599 C   0  0  0  0  0  0  0  0  0  0  0  0
   -5.3185  -16.7365  -37.2899 C   0  0  0  0  0  0  0  0  0  0  0  0
   -4.5676  -17.9788  -37.2432 C   0  0  0  0  0  0  0  0  0  0  0  0
   -3.1553  -18.0231  -37.3548 N   0  0  0  0  0  0  0  0  0  0  0  0
   -5.1342  -19.1167  -37.0975 O   0  0  0  0  0  0  0  0  0  0  0  0
  1  2  1  0
  2  3  1  0
  2  4  1  0
  4  5  1  0
  5  6  2  0
  6  7  1  0
  7  8  2  0
  8  9  1  0
  9 10  1  0
 11 10  1  6
 11 12  1  0
 12 13  1  0
 13 14  1  0
 14 15  2  0
 14 16  1  0
  8 17  1  0
 17 18  2  0
 18 19  1  0
 19 20  2  0
 20 21  1  0
 21 22  2  0
 22 23  1  0
 23 24  1  0
 23 25  2  0
 22  5  1  0
 20  7  1  0
 16 11  1  0
M  END
>  <shape_align_shape_tanimoto>  (2) 
0.64540545623191259

>  <shape_align_color_tanimoto>  (2) 
0.15489568601971768

>  <metric>  (2) 
color

>  <metric_score>  (2) 
0.155

>  <template_pid>  (2) 
5UIT

>  <template_shape_score>  (2) 
0.645

>  <template_color_score>  (2) 
0.155

>  <template_combo_score>  (2) 
0.400

$$$$
5UIT_combo_pose
     RDKit          3D

 25 27  0  0  0  0  0  0  0  0999 V2000
   -8.3665  -19.3375  -35.0180 C   0  0  0  0  0  0  0  0  0  0  0  0
   -8.5226  -18.4930  -36.2669 C   0  0  0  0  0  0  0  0  0  0  0  0
   -9.5505  -19.1216  -37.1762 C   0  0  0  0  0  0  0  0  0  0  0  0
   -7.3225  -18.2692  -36.9277 O   0  0  0  0  0  0  0  0  0  0  0  0
   -6.6700  -17.1083  -37.1841 C   0  0  0  0  0  0  0  0  0  0  0  0
   -7.0845  -15.8453  -36.8225 C   0  0  0  0  0  0  0  0  0  0  0  0
   -6.3771  -14.6969  -37.1114 C   0  0  0  0  0  0  0  0  0  0  0  0
   -6.8601  -13.4382  -36.7109 C   0  0  0  0  0  0  0  0  0  0  0  0
   -8.0382  -13.4247  -36.0364 O   0  0  0  0  0  0  0  0  0  0  0  0
   -8.7923  -12.4130  -35.5121 C   0  0  0  0  0  0  0  0  0  0  0  0
   -9.3497  -11.3789  -36.4204 C   0  0  2  0  0  0  0  0  0  0  0  0
   -8.3652  -10.4584  -37.0757 C   0  0  0  0  0  0  0  0  0  0  0  0
   -9.2440   -9.2129  -37.3185 C   0  0  0  0  0  0  0  0  0  0  0  0
   -9.8790   -9.1096  -35.9805 C   0  0  0  0  0  0  0  0  0  0  0  0
  -10.1470   -8.0552  -35.3525 O   0  0  0  0  0  0  0  0  0  0  0  0
  -10.1139  -10.4469  -35.5719 N   0  0  0  0  0  0  0  0  0  0  0  0
   -6.0951  -12.3991  -37.0433 N   0  0  0  0  0  0  0  0  0  0  0  0
   -4.9342  -12.4823  -37.7129 C   0  0  0  0  0  0  0  0  0  0  0  0
   -4.4375  -13.7035  -38.1174 C   0  0  0  0  0  0  0  0  0  0  0  0
   -5.1885  -14.8158  -37.8003 C   0  0  0  0  0  0  0  0  0  0  0  0
   -4.7285  -16.0587  -38.1859 C   0  0  0  0  0  0  0  0  0  0  0  0
   -5.4594  -17.1890  -37.8818 C   0  0  0  0  0  0  0  0  0  0  0  0
   -4.9664  -18.5005  -38.2931 C   0  0  0  0  0  0  0  0  0  0  0  0
   -3.7400  -18.6083  -39.0040 N   0  0  0  0  0  0  0  0  0  0  0  0
   -5.6276  -19.5358  -38.0182 O   0  0  0  0  0  0  0  0  0  0  0  0
  1  2  1  0
  2  3  1  0
  2  4  1  0
  4  5  1  0
  5  6  2  0
  6  7  1  0
  7  8  2  0
  8  9  1  0
  9 10  1  0
 11 10  1  1
 11 12  1  0
 12 13  1  0
 13 14  1  0
 14 15  2  0
 14 16  1  0
  8 17  1  0
 17 18  2  0
 18 19  1  0
 19 20  2  0
 20 21  1  0
 21 22  2  0
 22 23  1  0
 23 24  1  0
 23 25  2  0
 22  5  1  0
 20  7  1  0
 16 11  1  0
M  END
>  <shape_align_shape_tanimoto>  (3) 
0.69114781566030403

>  <shape_align_color_tanimoto>  (3) 
0.14729304684175729

>  <metric>  (3) 
combo

>  <metric_score>  (3) 
0.419

>  <template_pid>  (3) 
5UIT

>  <template_shape_score>  (3) 
0.691

>  <template_color_score>  (3) 
0.147

>  <template_combo_score>  (3) 
0.419

$$$$
