4DLI_shape_pose
     RDKit          3D

 21 24  0  0  0  0  0  0  0  0999 V2000
    9.4700    3.1763   28.0100 N   0  0  0  0  0  0  0  0  0  0  0  0
   10.0273    2.2578   28.9500 C   0  0  0  0  0  0  0  0  0  0  0  0
    9.5500    2.1830   30.2441 C   0  0  0  0  0  0  0  0  0  0  0  0
   10.0448    1.3222   31.1904 C   0  0  0  0  0  0  0  0  0  0  0  0
   11.0656    0.4776   30.8762 C   0  0  0  0  0  0  0  0  0  0  0  0
   11.5314   -0.3813   31.8258 C   0  0  0  0  0  0  0  0  0  0  0  0
   11.1840   -0.4906   33.1681 N   0  0  0  0  0  0  0  0  0  0  0  0
   10.3636    0.2608   34.0482 C   0  0  0  0  0  0  0  0  0  0  0  0
   10.0897   -0.2736   35.4284 C   0  0  0  0  0  0  0  0  0  0  0  0
    8.9968   -0.2548   34.3794 C   0  0  0  0  0  0  0  0  0  0  0  0
   12.5494   -1.2095   31.3909 N   0  0  0  0  0  0  0  0  0  0  0  0
   13.0473   -1.1813   30.1498 C   0  0  0  0  0  0  0  0  0  0  0  0
   14.1241   -2.0889   29.7647 C   0  0  0  0  0  0  0  0  0  0  0  0
   14.6293   -2.9797   30.6880 C   0  0  0  0  0  0  0  0  0  0  0  0
   15.6457   -3.8553   30.3694 C   0  0  0  0  0  0  0  0  0  0  0  0
   16.1751   -3.8422   29.0899 C   0  0  0  0  0  0  0  0  0  0  0  0
   15.6683   -2.9454   28.1559 C   0  0  0  0  0  0  0  0  0  0  0  0
   14.6403   -2.0622   28.4839 C   0  0  0  0  0  0  0  0  0  0  0  0
   12.5460   -0.3077   29.2582 N   0  0  0  0  0  0  0  0  0  0  0  0
   11.5534    0.5425   29.5767 C   0  0  0  0  0  0  0  0  0  0  0  0
   11.0603    1.4028   28.6269 C   0  0  0  0  0  0  0  0  0  0  0  0
  1  2  1  0
  2  3  2  0
  3  4  1  0
  4  5  2  0
  5  6  1  0
  6  7  1  0
  7  8  1  0
  8  9  1  0
  9 10  1  0
  6 11  2  0
 11 12  1  0
 12 13  1  0
 13 14  2  0
 14 15  1  0
 15 16  2  0
 16 17  1  0
 17 18  2  0
 12 19  2  0
 19 20  1  0
 20 21  2  0
 21  2  1  0
 20  5  1  0
 10  8  1  0
 18 13  1  0
M  END
>  <shape_align_shape_tanimoto>  (1) 
0.73172540252448848

>  <shape_align_color_tanimoto>  (1) 
0.048482163175378519

>  <metric>  (1) 
shape

>  <metric_score>  (1) 
0.732

>  <template_pid>  (1) 
4DLI

>  <template_shape_score>  (1) 
0.732

>  <template_color_score>  (1) 
0.048

>  <template_combo_score>  (1) 
0.390

$$$$
4DLI_color_pose
     RDKit          3D

 21 24  0  0  0  0  0  0  0  0999 V2000
    9.8954   -0.6220   36.2887 N   0  0  0  0  0  0  0  0  0  0  0  0
   10.0197   -0.2181   34.9298 C   0  0  0  0  0  0  0  0  0  0  0  0
    9.1921    0.7194   34.3551 C   0  0  0  0  0  0  0  0  0  0  0  0
    9.3403    1.0879   33.0349 C   0  0  0  0  0  0  0  0  0  0  0  0
   10.3171    0.5376   32.2383 C   0  0  0  0  0  0  0  0  0  0  0  0
   10.4632    0.9135   30.8961 C   0  0  0  0  0  0  0  0  0  0  0  0
    9.6227    1.8969   30.3012 N   0  0  0  0  0  0  0  0  0  0  0  0
    9.7039    2.2944   28.9162 C   0  0  0  0  0  0  0  0  0  0  0  0
   11.0596    2.7598   28.4807 C   0  0  0  0  0  0  0  0  0  0  0  0
   10.4278    1.5422   27.8879 C   0  0  0  0  0  0  0  0  0  0  0  0
   11.4570    0.2930   30.2375 N   0  0  0  0  0  0  0  0  0  0  0  0
   12.2813   -0.6240   30.7651 C   0  0  0  0  0  0  0  0  0  0  0  0
   13.3544   -1.2735   30.0253 C   0  0  0  0  0  0  0  0  0  0  0  0
   14.1440   -2.2215   30.6479 C   0  0  0  0  0  0  0  0  0  0  0  0
   15.1670   -2.8487   29.9541 C   0  0  0  0  0  0  0  0  0  0  0  0
   15.4526   -2.5756   28.6418 C   0  0  0  0  0  0  0  0  0  0  0  0
   14.6638   -1.6246   28.0099 C   0  0  0  0  0  0  0  0  0  0  0  0
   13.6453   -1.0022   28.7058 C   0  0  0  0  0  0  0  0  0  0  0  0
   12.0992   -0.9490   32.0554 N   0  0  0  0  0  0  0  0  0  0  0  0
   11.1420   -0.4006   32.8204 C   0  0  0  0  0  0  0  0  0  0  0  0
   10.9952   -0.7703   34.1403 C   0  0  0  0  0  0  0  0  0  0  0  0
  1  2  1  0
  2  3  2  0
  3  4  1  0
  4  5  2  0
  5  6  1  0
  6  7  1  0
  7  8  1  0
  8  9  1  0
  9 10  1  0
  6 11  2  0
 11 12  1  0
 12 13  1  0
 13 14  2  0
 14 15  1  0
 15 16  2  0
 16 17  1  0
 17 18  2  0
 12 19  2  0
 19 20  1  0
 20 21  2  0
 21  2  1  0
 20  5  1  0
 10  8  1  0
 18 13  1  0
M  END
>  <shape_align_shape_tanimoto>  (2) 
0.66484204520752488

>  <shape_align_color_tanimoto>  (2) 
0.10048906724171762

>  <metric>  (2) 
color

>  <metric_score>  (2) 
0.100

>  <template_pid>  (2) 
4DLI

>  <template_shape_score>  (2) 
0.665

>  <template_color_score>  (2) 
0.100

>  <template_combo_score>  (2) 
0.383

$$$$
4DLI_combo_pose
     RDKit          3D

 21 24  0  0  0  0  0  0  0  0999 V2000
    9.9517   -0.5663   36.2766 N   0  0  0  0  0  0  0  0  0  0  0  0
   10.1272   -0.2382   34.8977 C   0  0  0  0  0  0  0  0  0  0  0  0
    9.3357    0.6671   34.2454 C   0  0  0  0  0  0  0  0  0  0  0  0
    9.5084    0.9814   32.9133 C   0  0  0  0  0  0  0  0  0  0  0  0
   10.5045    0.3841   32.1726 C   0  0  0  0  0  0  0  0  0  0  0  0
   10.6676    0.7062   30.8417 C   0  0  0  0  0  0  0  0  0  0  0  0
    9.8488    1.6465   30.1563 N   0  0  0  0  0  0  0  0  0  0  0  0
   10.1383    1.8828   28.7598 C   0  0  0  0  0  0  0  0  0  0  0  0
    9.2223    2.9102   28.0630 C   0  0  0  0  0  0  0  0  0  0  0  0
   10.6664    3.1939   28.3090 C   0  0  0  0  0  0  0  0  0  0  0  0
   11.6782    0.0617   30.2014 N   0  0  0  0  0  0  0  0  0  0  0  0
   12.4711   -0.8255   30.7980 C   0  0  0  0  0  0  0  0  0  0  0  0
   13.5429   -1.4876   30.0574 C   0  0  0  0  0  0  0  0  0  0  0  0
   14.3613   -2.4063   30.6815 C   0  0  0  0  0  0  0  0  0  0  0  0
   15.3879   -3.0607   30.0305 C   0  0  0  0  0  0  0  0  0  0  0  0
   15.5915   -2.7655   28.6770 C   0  0  0  0  0  0  0  0  0  0  0  0
   14.7735   -1.8446   28.0458 C   0  0  0  0  0  0  0  0  0  0  0  0
   13.7403   -1.1938   28.7236 C   0  0  0  0  0  0  0  0  0  0  0  0
   12.2824   -1.1150   32.0984 N   0  0  0  0  0  0  0  0  0  0  0  0
   11.3041   -0.5307   32.8326 C   0  0  0  0  0  0  0  0  0  0  0  0
   11.1376   -0.8504   34.1648 C   0  0  0  0  0  0  0  0  0  0  0  0
  1  2  1  0
  2  3  2  0
  3  4  1  0
  4  5  2  0
  5  6  1  0
  6  7  1  0
  7  8  1  0
  8  9  1  0
  9 10  1  0
  6 11  2  0
 11 12  1  0
 12 13  1  0
 13 14  2  0
 14 15  1  0
 15 16  2  0
 16 17  1  0
 17 18  2  0
 12 19  2  0
 19 20  1  0
 20 21  2  0
 21  2  1  0
 20  5  1  0
 10  8  1  0
 18 13  1  0
M  END
>  <shape_align_shape_tanimoto>  (3) 
0.69758864216771921

>  <shape_align_color_tanimoto>  (3) 
0.091672743608940552

>  <metric>  (3) 
combo

>  <metric_score>  (3) 
0.395

>  <template_pid>  (3) 
4DLI

>  <template_shape_score>  (3) 
0.698

>  <template_color_score>  (3) 
0.092

>  <template_combo_score>  (3) 
0.395

$$$$
