4J3D_shape_pose
     RDKit          3D

 31 32  0  0  0  0  0  0  0  0999 V2000
  -10.3157    1.2224   -1.1739 O   0  0  0  0  0  0  0  0  0  0  0  0
   -9.8568    1.4249   -2.3240 C   0  0  0  0  0  0  0  0  0  0  0  0
   -9.2404    2.7922   -2.5247 C   0  0  0  0  0  0  0  0  0  0  0  0
   -9.3827    3.5118   -1.2074 C   0  0  0  0  0  0  0  0  0  0  0  0
   -8.7975    4.9141   -1.2697 C   0  0  2  0  0  0  0  0  0  0  0  0
   -9.4892    5.6756   -2.2852 N   0  0  0  0  0  0  0  0  0  0  0  0
  -10.2352    6.8424   -1.9845 C   0  0  0  0  0  0  0  0  0  0  0  0
  -10.2640    7.1874   -0.7611 O   0  0  0  0  0  0  0  0  0  0  0  0
  -10.9351    7.6146   -3.0062 C   0  0  0  0  0  0  0  0  0  0  0  0
  -10.9310    7.2776   -4.3438 C   0  0  0  0  0  0  0  0  0  0  0  0
  -11.5986    8.0184   -5.3008 C   0  0  0  0  0  0  0  0  0  0  0  0
  -12.2923    9.1376   -4.8830 C   0  0  0  0  0  0  0  0  0  0  0  0
  -12.9766    9.8873   -5.9029 C   0  0  0  0  0  0  0  0  0  0  0  0
  -13.5436   10.5262   -6.7740 C   0  0  0  0  0  0  0  0  0  0  0  0
  -14.2272   11.2613   -7.8106 C   0  0  0  0  0  0  0  0  0  0  0  0
  -15.5694   11.0313   -8.1037 C   0  0  0  0  0  0  0  0  0  0  0  0
  -16.1966   11.7610   -9.1123 C   0  0  0  0  0  0  0  0  0  0  0  0
  -15.4496   12.7018   -9.7955 C   0  0  0  0  0  0  0  0  0  0  0  0
  -14.1141   12.9342   -9.5075 C   0  0  0  0  0  0  0  0  0  0  0  0
  -13.4911   12.2138   -8.5103 C   0  0  0  0  0  0  0  0  0  0  0  0
  -12.3255    9.5162   -3.5496 C   0  0  0  0  0  0  0  0  0  0  0  0
  -11.6354    8.7374   -2.6126 C   0  0  0  0  0  0  0  0  0  0  0  0
   -7.3266    4.8710   -1.5260 C   0  0  0  0  0  0  0  0  0  0  0  0
   -6.7949    5.4431   -2.5193 O   0  0  0  0  0  0  0  0  0  0  0  0
   -6.5366    4.1468   -0.5892 N   0  0  0  0  0  0  0  0  0  0  0  0
   -5.2028    4.0596   -0.7480 O   0  0  0  0  0  0  0  0  0  0  0  0
   -9.8727    0.5187   -3.3881 N   0  0  0  0  0  0  0  0  0  0  0  0
  -10.4215   -0.7873   -3.4381 C   0  0  0  0  0  0  0  0  0  0  0  0
  -11.8892   -0.8751   -3.4674 C   0  0  0  0  0  0  0  0  0  0  0  0
  -12.7597   -0.2647   -2.4680 C   0  0  0  0  0  0  0  0  0  0  0  0
  -12.7946    1.1193   -2.4049 O   0  0  0  0  0  0  0  0  0  0  0  0
  1  2  2  0
  2  3  1  0
  3  4  1  0
  5  4  1  6
  5  6  1  0
  6  7  1  0
  7  8  2  0
  7  9  1  0
  9 10  2  0
 10 11  1  0
 11 12  2  0
 12 13  1  0
 13 14  3  0
 14 15  1  0
 15 16  2  0
 16 17  1  0
 17 18  2  0
 18 19  1  0
 19 20  2  0
 12 21  1  0
 21 22  2  0
  5 23  1  0
 23 24  2  0
 23 25  1  0
 25 26  1  0
  2 27  1  0
 27 28  1  0
 28 29  1  0
 29 30  1  0
 30 31  1  0
 22  9  1  0
 20 15  1  0
M  END
>  <shape_align_shape_tanimoto>  (1) 
0.57302985923803451

>  <shape_align_color_tanimoto>  (1) 
0.038075843409029371

>  <metric>  (1) 
shape

>  <metric_score>  (1) 
0.573

>  <template_pid>  (1) 
4J3D

>  <template_shape_score>  (1) 
0.573

>  <template_color_score>  (1) 
0.038

>  <template_combo_score>  (1) 
0.306

$$$$
4J3D_color_pose
     RDKit          3D

 31 32  0  0  0  0  0  0  0  0999 V2000
  -10.4851    1.3624   -1.0772 O   0  0  0  0  0  0  0  0  0  0  0  0
  -10.0462    1.5383   -2.2425 C   0  0  0  0  0  0  0  0  0  0  0  0
   -9.3022    2.8250   -2.4784 C   0  0  0  0  0  0  0  0  0  0  0  0
   -9.2906    3.5670   -1.1881 C   0  0  0  0  0  0  0  0  0  0  0  0
   -8.5730    4.9046   -1.2405 C   0  0  2  0  0  0  0  0  0  0  0  0
   -9.2792    5.6989   -2.2353 N   0  0  0  0  0  0  0  0  0  0  0  0
  -10.0533    6.8329   -1.9099 C   0  0  0  0  0  0  0  0  0  0  0  0
  -10.1426    7.1783   -0.7197 O   0  0  0  0  0  0  0  0  0  0  0  0
  -10.7616    7.6293   -2.9087 C   0  0  0  0  0  0  0  0  0  0  0  0
  -11.4931    8.7209   -2.4461 C   0  0  0  0  0  0  0  0  0  0  0  0
  -12.1790    9.4947   -3.3940 C   0  0  0  0  0  0  0  0  0  0  0  0
  -12.1271    9.1802   -4.7387 C   0  0  0  0  0  0  0  0  0  0  0  0
  -12.8253    9.9602   -5.7396 C   0  0  0  0  0  0  0  0  0  0  0  0
  -13.4175   10.6059   -6.5781 C   0  0  0  0  0  0  0  0  0  0  0  0
  -14.1066   11.3668   -7.5872 C   0  0  0  0  0  0  0  0  0  0  0  0
  -14.1931   12.7398   -7.4171 C   0  0  0  0  0  0  0  0  0  0  0  0
  -14.8639   13.4723   -8.4011 C   0  0  0  0  0  0  0  0  0  0  0  0
  -15.4134   12.8240   -9.4968 C   0  0  0  0  0  0  0  0  0  0  0  0
  -15.3144   11.4492   -9.6458 C   0  0  0  0  0  0  0  0  0  0  0  0
  -14.6529   10.7157   -8.6783 C   0  0  0  0  0  0  0  0  0  0  0  0
  -11.4030    8.0985   -5.2033 C   0  0  0  0  0  0  0  0  0  0  0  0
  -10.7304    7.3421   -4.2598 C   0  0  0  0  0  0  0  0  0  0  0  0
   -7.1427    4.7684   -1.4953 C   0  0  0  0  0  0  0  0  0  0  0  0
   -6.3439    4.1248   -0.7630 O   0  0  0  0  0  0  0  0  0  0  0  0
   -6.6013    5.4086   -2.6581 N   0  0  0  0  0  0  0  0  0  0  0  0
   -5.2813    5.3329   -2.9711 O   0  0  0  0  0  0  0  0  0  0  0  0
  -10.2180    0.6106   -3.2976 N   0  0  0  0  0  0  0  0  0  0  0  0
  -10.9312   -0.6353   -3.0978 C   0  0  0  0  0  0  0  0  0  0  0  0
  -12.3581   -0.3617   -2.6677 C   0  0  0  0  0  0  0  0  0  0  0  0
  -13.1064    0.4393   -3.6986 C   0  0  0  0  0  0  0  0  0  0  0  0
  -12.4357    1.6613   -3.8709 O   0  0  0  0  0  0  0  0  0  0  0  0
  1  2  2  0
  2  3  1  0
  3  4  1  0
  5  4  1  6
  5  6  1  0
  6  7  1  0
  7  8  2  0
  7  9  1  0
  9 10  2  0
 10 11  1  0
 11 12  2  0
 12 13  1  0
 13 14  3  0
 14 15  1  0
 15 16  2  0
 16 17  1  0
 17 18  2  0
 18 19  1  0
 19 20  2  0
 12 21  1  0
 21 22  2  0
  5 23  1  0
 23 24  2  0
 23 25  1  0
 25 26  1  0
  2 27  1  0
 27 28  1  0
 28 29  1  0
 29 30  1  0
 30 31  1  0
 22  9  1  0
 20 15  1  0
M  END
>  <shape_align_shape_tanimoto>  (2) 
0.5609981480396804

>  <shape_align_color_tanimoto>  (2) 
0.090547345516709135

>  <metric>  (2) 
color

>  <metric_score>  (2) 
0.091

>  <template_pid>  (2) 
4J3D

>  <template_shape_score>  (2) 
0.561

>  <template_color_score>  (2) 
0.091

>  <template_combo_score>  (2) 
0.326

$$$$
4J3D_combo_pose
     RDKit          3D

 31 32  0  0  0  0  0  0  0  0999 V2000
  -10.4851    1.3624   -1.0772 O   0  0  0  0  0  0  0  0  0  0  0  0
  -10.0462    1.5383   -2.2425 C   0  0  0  0  0  0  0  0  0  0  0  0
   -9.3022    2.8250   -2.4784 C   0  0  0  0  0  0  0  0  0  0  0  0
   -9.2906    3.5670   -1.1881 C   0  0  0  0  0  0  0  0  0  0  0  0
   -8.5730    4.9046   -1.2405 C   0  0  2  0  0  0  0  0  0  0  0  0
   -9.2792    5.6989   -2.2353 N   0  0  0  0  0  0  0  0  0  0  0  0
  -10.0533    6.8329   -1.9099 C   0  0  0  0  0  0  0  0  0  0  0  0
  -10.1426    7.1783   -0.7197 O   0  0  0  0  0  0  0  0  0  0  0  0
  -10.7616    7.6293   -2.9087 C   0  0  0  0  0  0  0  0  0  0  0  0
  -11.4931    8.7209   -2.4461 C   0  0  0  0  0  0  0  0  0  0  0  0
  -12.1790    9.4947   -3.3940 C   0  0  0  0  0  0  0  0  0  0  0  0
  -12.1271    9.1802   -4.7387 C   0  0  0  0  0  0  0  0  0  0  0  0
  -12.8253    9.9602   -5.7396 C   0  0  0  0  0  0  0  0  0  0  0  0
  -13.4175   10.6059   -6.5781 C   0  0  0  0  0  0  0  0  0  0  0  0
  -14.1066   11.3668   -7.5872 C   0  0  0  0  0  0  0  0  0  0  0  0
  -14.1931   12.7398   -7.4171 C   0  0  0  0  0  0  0  0  0  0  0  0
  -14.8639   13.4723   -8.4011 C   0  0  0  0  0  0  0  0  0  0  0  0
  -15.4134   12.8240   -9.4968 C   0  0  0  0  0  0  0  0  0  0  0  0
  -15.3144   11.4492   -9.6458 C   0  0  0  0  0  0  0  0  0  0  0  0
  -14.6529   10.7157   -8.6783 C   0  0  0  0  0  0  0  0  0  0  0  0
  -11.4030    8.0985   -5.2033 C   0  0  0  0  0  0  0  0  0  0  0  0
  -10.7304    7.3421   -4.2598 C   0  0  0  0  0  0  0  0  0  0  0  0
   -7.1427    4.7684   -1.4953 C   0  0  0  0  0  0  0  0  0  0  0  0
   -6.3439    4.1248   -0.7630 O   0  0  0  0  0  0  0  0  0  0  0  0
   -6.6013    5.4086   -2.6581 N   0  0  0  0  0  0  0  0  0  0  0  0
   -5.2813    5.3329   -2.9711 O   0  0  0  0  0  0  0  0  0  0  0  0
  -10.2180    0.6106   -3.2976 N   0  0  0  0  0  0  0  0  0  0  0  0
  -10.9312   -0.6353   -3.0978 C   0  0  0  0  0  0  0  0  0  0  0  0
  -12.3581   -0.3617   -2.6677 C   0  0  0  0  0  0  0  0  0  0  0  0
  -13.1064    0.4393   -3.6986 C   0  0  0  0  0  0  0  0  0  0  0  0
  -12.4357    1.6613   -3.8709 O   0  0  0  0  0  0  0  0  0  0  0  0
  1  2  2  0
  2  3  1  0
  3  4  1  0
  5  4  1  6
  5  6  1  0
  6  7  1  0
  7  8  2  0
  7  9  1  0
  9 10  2  0
 10 11  1  0
 11 12  2  0
 12 13  1  0
 13 14  3  0
 14 15  1  0
 15 16  2  0
 16 17  1  0
 17 18  2  0
 18 19  1  0
 19 20  2  0
 12 21  1  0
 21 22  2  0
  5 23  1  0
 23 24  2  0
 23 25  1  0
 25 26  1  0
  2 27  1  0
 27 28  1  0
 28 29  1  0
 29 30  1  0
 30 31  1  0
 22  9  1  0
 20 15  1  0
M  END
>  <shape_align_shape_tanimoto>  (3) 
0.5609981480396804

>  <shape_align_color_tanimoto>  (3) 
0.090547345516709135

>  <metric>  (3) 
combo

>  <metric_score>  (3) 
0.326

>  <template_pid>  (3) 
4J3D

>  <template_shape_score>  (3) 
0.561

>  <template_color_score>  (3) 
0.091

>  <template_combo_score>  (3) 
0.326

$$$$
