4OWN_shape_pose
     RDKit          3D

 11 11  0  0  0  0  0  0  0  0999 V2000
  -30.1909   92.0842   16.1765 N   0  0  0  0  0  0  0  0  0  0  0  0
  -31.1929   92.0815   17.1866 C   0  0  0  0  0  0  0  0  0  0  0  0
  -32.4872   92.4654   16.8317 C   0  0  0  0  0  0  0  0  0  0  0  0
  -33.5187   92.4899   17.7545 C   0  0  0  0  0  0  0  0  0  0  0  0
  -33.2140   92.1157   19.0534 C   0  0  0  0  0  0  0  0  0  0  0  0
  -34.2437   92.1433   19.9612 F   0  0  0  0  0  0  0  0  0  0  0  0
  -31.9463   91.7300   19.4426 C   0  0  0  0  0  0  0  0  0  0  0  0
  -30.9435   91.7182   18.4940 C   0  0  0  0  0  0  0  0  0  0  0  0
  -29.5866   91.3191   18.8509 C   0  0  0  0  0  0  0  0  0  0  0  0
  -28.7197   91.3364   17.9128 O   0  0  0  0  0  0  0  0  0  0  0  0
  -29.1970   90.9355   20.1058 O   0  0  0  0  0  0  0  0  0  0  0  0
  1  2  1  0
  2  3  2  0
  3  4  1  0
  4  5  2  0
  5  6  1  0
  5  7  1  0
  7  8  2  0
  8  9  1  0
  9 10  2  0
  9 11  1  0
  8  2  1  0
M  CHG  1  11  -1
M  END
>  <shape_align_shape_tanimoto>  (1) 
0.62674346152288374

>  <shape_align_color_tanimoto>  (1) 
0.090293937015834436

>  <metric>  (1) 
shape

>  <metric_score>  (1) 
0.627

>  <template_pid>  (1) 
4OWN

>  <template_shape_score>  (1) 
0.627

>  <template_color_score>  (1) 
0.090

>  <template_combo_score>  (1) 
0.359

$$$$
4OWN_color_pose
     RDKit          3D

 11 11  0  0  0  0  0  0  0  0999 V2000
  -30.2382   92.0852   16.2125 N   0  0  0  0  0  0  0  0  0  0  0  0
  -31.2416   92.0862   17.2123 C   0  0  0  0  0  0  0  0  0  0  0  0
  -32.5208   92.4732   16.8243 C   0  0  0  0  0  0  0  0  0  0  0  0
  -33.5305   92.4880   17.7707 C   0  0  0  0  0  0  0  0  0  0  0  0
  -33.2856   92.1278   19.0783 C   0  0  0  0  0  0  0  0  0  0  0  0
  -34.2349   92.1260   20.0364 F   0  0  0  0  0  0  0  0  0  0  0  0
  -31.9932   91.7481   19.4217 C   0  0  0  0  0  0  0  0  0  0  0  0
  -30.9645   91.7220   18.5046 C   0  0  0  0  0  0  0  0  0  0  0  0
  -29.6037   91.3285   18.8389 C   0  0  0  0  0  0  0  0  0  0  0  0
  -28.7550   91.3444   17.9204 O   0  0  0  0  0  0  0  0  0  0  0  0
  -29.2103   90.9427   20.1079 O   0  0  0  0  0  0  0  0  0  0  0  0
  1  2  1  0
  2  3  2  0
  3  4  1  0
  4  5  2  0
  5  6  1  0
  5  7  1  0
  7  8  2  0
  8  9  1  0
  9 10  2  0
  9 11  1  0
  8  2  1  0
M  CHG  1  11  -1
M  END
>  <shape_align_shape_tanimoto>  (2) 
0.62522780921707721

>  <shape_align_color_tanimoto>  (2) 
0.090566544578400895

>  <metric>  (2) 
color

>  <metric_score>  (2) 
0.091

>  <template_pid>  (2) 
4OWN

>  <template_shape_score>  (2) 
0.625

>  <template_color_score>  (2) 
0.091

>  <template_combo_score>  (2) 
0.358

$$$$
4OWN_combo_pose
     RDKit          3D

 11 11  0  0  0  0  0  0  0  0999 V2000
  -30.1909   92.0842   16.1765 N   0  0  0  0  0  0  0  0  0  0  0  0
  -31.1929   92.0815   17.1866 C   0  0  0  0  0  0  0  0  0  0  0  0
  -32.4872   92.4654   16.8317 C   0  0  0  0  0  0  0  0  0  0  0  0
  -33.5187   92.4899   17.7545 C   0  0  0  0  0  0  0  0  0  0  0  0
  -33.2140   92.1157   19.0534 C   0  0  0  0  0  0  0  0  0  0  0  0
  -34.2437   92.1433   19.9612 F   0  0  0  0  0  0  0  0  0  0  0  0
  -31.9463   91.7300   19.4426 C   0  0  0  0  0  0  0  0  0  0  0  0
  -30.9435   91.7182   18.4940 C   0  0  0  0  0  0  0  0  0  0  0  0
  -29.5866   91.3191   18.8509 C   0  0  0  0  0  0  0  0  0  0  0  0
  -28.7197   91.3364   17.9128 O   0  0  0  0  0  0  0  0  0  0  0  0
  -29.1970   90.9355   20.1058 O   0  0  0  0  0  0  0  0  0  0  0  0
  1  2  1  0
  2  3  2  0
  3  4  1  0
  4  5  2  0
  5  6  1  0
  5  7  1  0
  7  8  2  0
  8  9  1  0
  9 10  2  0
  9 11  1  0
  8  2  1  0
M  CHG  1  11  -1
M  END
>  <shape_align_shape_tanimoto>  (3) 
0.62674346152288374

>  <shape_align_color_tanimoto>  (3) 
0.090293937015834436

>  <metric>  (3) 
combo

>  <metric_score>  (3) 
0.359

>  <template_pid>  (3) 
4OWN

>  <template_shape_score>  (3) 
0.627

>  <template_color_score>  (3) 
0.090

>  <template_combo_score>  (3) 
0.359

$$$$
