6QQZ_shape_pose
     RDKit          3D

 24 27  0  0  0  0  0  0  0  0999 V2000
   39.8245   27.1514   24.6707 N   0  0  0  0  0  0  0  0  0  0  0  0
   39.8467   26.2984   25.4461 C   0  0  0  0  0  0  0  0  0  0  0  0
   39.8653   25.2349   26.4233 C   0  0  0  0  0  0  0  0  0  0  0  0
   40.9059   24.9336   27.2717 C   0  0  0  0  0  0  0  0  0  0  0  0
   42.1667   25.6682   27.2996 C   0  0  0  0  0  0  0  0  0  0  0  0
   42.0691   27.0575   27.2732 C   0  0  0  0  0  0  0  0  0  0  0  0
   43.1910   27.8616   27.2955 C   0  0  0  0  0  0  0  0  0  0  0  0
   44.4258   27.2447   27.3453 C   0  0  0  0  0  0  0  0  0  0  0  0
   45.7077   27.7957   27.3770 C   0  0  0  0  0  0  0  0  0  0  0  0
   46.5496   26.7023   27.4223 C   0  0  0  0  0  0  0  0  0  0  0  0
   45.8203   25.5581   27.4182 N   0  0  0  0  0  0  0  0  0  0  0  0
   46.4492   24.2508   27.4603 C   0  0  0  0  0  0  0  0  0  0  0  0
   46.6474   23.7708   28.8482 C   0  0  0  0  0  0  0  0  0  0  0  0
   47.8256   24.0776   29.5035 C   0  0  0  0  0  0  0  0  0  0  0  0
   48.0686   23.6556   30.8050 C   0  0  0  0  0  0  0  0  0  0  0  0
   47.0560   22.9131   31.3928 C   0  0  0  0  0  0  0  0  0  0  0  0
   45.9214   22.6130   30.7730 N   0  0  0  0  0  0  0  0  0  0  0  0
   45.6723   23.0162   29.5094 C   0  0  0  0  0  0  0  0  0  0  0  0
   44.5106   25.8677   27.3712 C   0  0  0  0  0  0  0  0  0  0  0  0
   43.3988   25.0481   27.3494 C   0  0  0  0  0  0  0  0  0  0  0  0
   40.5107   23.8810   28.0105 N   0  0  0  0  0  0  0  0  0  0  0  0
   39.2789   23.5147   27.6637 N   0  0  0  0  0  0  0  0  0  0  0  0
   38.8530   24.3370   26.6810 C   0  0  0  0  0  0  0  0  0  0  0  0
   37.6113   24.3455   25.9880 N   0  0  0  0  0  0  0  0  0  0  0  0
  1  2  3  0
  2  3  1  0
  3  4  1  0
  4  5  1  0
  5  6  2  0
  6  7  1  0
  7  8  2  0
  8  9  1  0
  9 10  2  0
 10 11  1  0
 11 12  1  0
 12 13  1  0
 13 14  2  0
 14 15  1  0
 15 16  2  0
 16 17  1  0
 17 18  2  0
 11 19  1  0
 19 20  2  0
  4 21  2  0
 21 22  1  0
 22 23  1  0
 23 24  1  0
 23  3  2  0
 20  5  1  0
 19  8  1  0
 18 13  1  0
M  END
>  <shape_align_shape_tanimoto>  (1) 
0.76347883835037678

>  <shape_align_color_tanimoto>  (1) 
0.03947079273285882

>  <metric>  (1) 
shape

>  <metric_score>  (1) 
0.763

>  <template_pid>  (1) 
6QQZ

>  <template_shape_score>  (1) 
0.763

>  <template_color_score>  (1) 
0.039

>  <template_combo_score>  (1) 
0.401

$$$$
6QQZ_color_pose
     RDKit          3D

 24 27  0  0  0  0  0  0  0  0999 V2000
   45.7477   23.4208   27.7999 N   0  0  0  0  0  0  0  0  0  0  0  0
   45.5694   24.5590   27.6858 C   0  0  0  0  0  0  0  0  0  0  0  0
   45.3532   25.9813   27.5595 C   0  0  0  0  0  0  0  0  0  0  0  0
   44.1408   26.6311   27.4375 C   0  0  0  0  0  0  0  0  0  0  0  0
   42.8694   25.9129   27.4216 C   0  0  0  0  0  0  0  0  0  0  0  0
   42.7150   24.9183   28.3769 C   0  0  0  0  0  0  0  0  0  0  0  0
   41.5349   24.1818   28.4359 C   0  0  0  0  0  0  0  0  0  0  0  0
   40.5526   24.4870   27.5164 C   0  0  0  0  0  0  0  0  0  0  0  0
   39.3072   23.9193   27.3577 C   0  0  0  0  0  0  0  0  0  0  0  0
   38.7336   24.5934   26.2977 C   0  0  0  0  0  0  0  0  0  0  0  0
   39.5979   25.5298   25.8357 N   0  0  0  0  0  0  0  0  0  0  0  0
   39.2613   26.3936   24.7196 C   0  0  0  0  0  0  0  0  0  0  0  0
   39.6603   25.8122   23.4053 C   0  0  0  0  0  0  0  0  0  0  0  0
   40.9193   26.0745   22.8815 C   0  0  0  0  0  0  0  0  0  0  0  0
   41.2525   25.5159   21.6578 C   0  0  0  0  0  0  0  0  0  0  0  0
   40.3775   24.7117   20.9474 C   0  0  0  0  0  0  0  0  0  0  0  0
   39.1614   24.4729   21.4786 N   0  0  0  0  0  0  0  0  0  0  0  0
   38.7863   25.0003   22.6810 C   0  0  0  0  0  0  0  0  0  0  0  0
   40.7224   25.4793   26.5730 C   0  0  0  0  0  0  0  0  0  0  0  0
   41.8852   26.2162   26.5031 C   0  0  0  0  0  0  0  0  0  0  0  0
   44.3831   27.9482   27.3460 N   0  0  0  0  0  0  0  0  0  0  0  0
   45.6947   28.1733   27.4037 N   0  0  0  0  0  0  0  0  0  0  0  0
   46.3144   26.9806   27.5349 C   0  0  0  0  0  0  0  0  0  0  0  0
   47.7121   26.7709   27.6323 N   0  0  0  0  0  0  0  0  0  0  0  0
  1  2  3  0
  2  3  1  0
  3  4  1  0
  4  5  1  0
  5  6  2  0
  6  7  1  0
  7  8  2  0
  8  9  1  0
  9 10  2  0
 10 11  1  0
 11 12  1  0
 12 13  1  0
 13 14  2  0
 14 15  1  0
 15 16  2  0
 16 17  1  0
 17 18  2  0
 11 19  1  0
 19 20  2  0
  4 21  2  0
 21 22  1  0
 22 23  1  0
 23 24  1  0
 23  3  2  0
 20  5  1  0
 19  8  1  0
 18 13  1  0
M  END
>  <shape_align_shape_tanimoto>  (2) 
0.54405581430289418

>  <shape_align_color_tanimoto>  (2) 
0.13120174778069202

>  <metric>  (2) 
color

>  <metric_score>  (2) 
0.131

>  <template_pid>  (2) 
6QQZ

>  <template_shape_score>  (2) 
0.544

>  <template_color_score>  (2) 
0.131

>  <template_combo_score>  (2) 
0.338

$$$$
6QQZ_combo_pose
     RDKit          3D

 24 27  0  0  0  0  0  0  0  0999 V2000
   41.7490   23.2723   29.1604 N   0  0  0  0  0  0  0  0  0  0  0  0
   41.2117   23.8824   28.3267 C   0  0  0  0  0  0  0  0  0  0  0  0
   40.5464   24.6241   27.3213 C   0  0  0  0  0  0  0  0  0  0  0  0
   41.0322   25.7526   26.6725 C   0  0  0  0  0  0  0  0  0  0  0  0
   42.3278   26.3852   26.9108 C   0  0  0  0  0  0  0  0  0  0  0  0
   42.3426   27.7612   27.0198 C   0  0  0  0  0  0  0  0  0  0  0  0
   43.5236   28.4401   27.2449 C   0  0  0  0  0  0  0  0  0  0  0  0
   44.6854   27.6730   27.3549 C   0  0  0  0  0  0  0  0  0  0  0  0
   45.9841   28.0603   27.5746 C   0  0  0  0  0  0  0  0  0  0  0  0
   46.7358   26.9153   27.5954 C   0  0  0  0  0  0  0  0  0  0  0  0
   45.9192   25.8402   27.3927 N   0  0  0  0  0  0  0  0  0  0  0  0
   46.4362   24.4938   27.3636 C   0  0  0  0  0  0  0  0  0  0  0  0
   46.4461   23.8461   28.7104 C   0  0  0  0  0  0  0  0  0  0  0  0
   45.3323   23.1206   29.1387 C   0  0  0  0  0  0  0  0  0  0  0  0
   45.3663   22.5262   30.3988 C   0  0  0  0  0  0  0  0  0  0  0  0
   46.5031   22.6676   31.1986 C   0  0  0  0  0  0  0  0  0  0  0  0
   47.5636   23.3661   30.7747 N   0  0  0  0  0  0  0  0  0  0  0  0
   47.5384   23.9447   29.5560 C   0  0  0  0  0  0  0  0  0  0  0  0
   44.6624   26.2951   27.2446 C   0  0  0  0  0  0  0  0  0  0  0  0
   43.4791   25.6226   27.0196 C   0  0  0  0  0  0  0  0  0  0  0  0
   40.0958   26.1681   25.7777 N   0  0  0  0  0  0  0  0  0  0  0  0
   39.0363   25.3526   25.8298 N   0  0  0  0  0  0  0  0  0  0  0  0
   39.2971   24.4117   26.7624 C   0  0  0  0  0  0  0  0  0  0  0  0
   38.4401   23.3211   27.1614 N   0  0  0  0  0  0  0  0  0  0  0  0
  1  2  3  0
  2  3  1  0
  3  4  1  0
  4  5  1  0
  5  6  2  0
  6  7  1  0
  7  8  2  0
  8  9  1  0
  9 10  2  0
 10 11  1  0
 11 12  1  0
 12 13  1  0
 13 14  2  0
 14 15  1  0
 15 16  2  0
 16 17  1  0
 17 18  2  0
 11 19  1  0
 19 20  2  0
  4 21  2  0
 21 22  1  0
 22 23  1  0
 23 24  1  0
 23  3  2  0
 20  5  1  0
 19  8  1  0
 18 13  1  0
M  END
>  <shape_align_shape_tanimoto>  (3) 
0.74826268560045306

>  <shape_align_color_tanimoto>  (3) 
0.090743187467330275

>  <metric>  (3) 
combo

>  <metric_score>  (3) 
0.420

>  <template_pid>  (3) 
6QQZ

>  <template_shape_score>  (3) 
0.748

>  <template_color_score>  (3) 
0.091

>  <template_combo_score>  (3) 
0.420

$$$$
