6QZH_shape_pose
     RDKit          3D

 33 35  0  0  0  0  0  0  0  0999 V2000
    4.3600   72.9230   82.7829 C   0  0  0  0  0  0  0  0  0  0  0  0
    3.1077   72.3015   82.2365 C   0  0  0  0  0  0  0  0  0  0  0  0
    2.7210   70.9842   82.2726 C   0  0  0  0  0  0  0  0  0  0  0  0
    1.4811   70.8950   81.6343 C   0  0  0  0  0  0  0  0  0  0  0  0
    1.1843   72.1527   81.2488 C   0  0  0  0  0  0  0  0  0  0  0  0
   -0.0553   72.6521   80.5036 C   0  0  2  0  0  0  0  0  0  0  0  0
    0.5123   73.4747   79.4955 N   0  0  0  0  0  0  0  0  0  0  0  0
   -0.1939   74.5129   78.7807 C   0  0  0  0  0  0  0  0  0  0  0  0
   -1.4262   74.4222   78.5310 N   0  0  0  0  0  0  0  0  0  0  0  0
   -1.9008   75.8286   77.6794 S   0  0  0  0  0  0  0  0  0  0  0  0
   -2.3457   75.5212   76.2867 O   0  0  0  0  0  0  0  0  0  0  0  0
   -2.8500   76.6869   78.4263 O   0  0  0  0  0  0  0  0  0  0  0  0
   -0.3321   76.5227   77.6940 N   0  0  0  0  0  0  0  0  0  0  0  0
    0.4504   75.7056   78.3101 C   0  0  0  0  0  0  0  0  0  0  0  0
    1.8461   76.0467   78.4330 N   0  0  0  0  0  0  0  0  0  0  0  0
    2.3508   77.2449   78.9735 C   0  0  0  0  0  0  0  0  0  0  0  0
    3.7038   77.4838   78.6843 C   0  0  0  0  0  0  0  0  0  0  0  0
    4.3168   78.5798   79.2055 C   0  0  0  0  0  0  0  0  0  0  0  0
    3.6105   79.4668   80.0251 C   0  0  0  0  0  0  0  0  0  0  0  0
    4.3792   80.6672   80.4324 C   0  0  0  0  0  0  0  0  0  0  0  0
    2.2885   79.2734   80.3404 C   0  0  0  0  0  0  0  0  0  0  0  0
    1.4617   80.0946   81.1342 C   0  0  0  0  0  0  0  0  0  0  0  0
    0.1801   80.0240   80.8298 O   0  0  0  0  0  0  0  0  0  0  0  0
    1.6437   80.9816   82.1950 N   0  0  0  0  0  0  0  0  0  0  0  0
    0.3561   81.6193   82.6270 C   0  0  0  0  0  0  0  0  0  0  0  0
    2.7732   81.3439   82.9642 C   0  0  0  0  0  0  0  0  0  0  0  0
    1.6922   78.1254   79.7746 C   0  0  0  0  0  0  0  0  0  0  0  0
    0.3451   77.8378   80.0314 O   0  0  0  0  0  0  0  0  0  0  0  0
   -0.8528   73.2889   81.5770 C   0  0  0  0  0  0  0  0  0  0  0  0
   -0.2438   74.4486   82.2737 C   0  0  0  0  0  0  0  0  0  0  0  0
   -0.8771   72.1833   82.6764 C   0  0  0  0  0  0  0  0  0  0  0  0
   -2.2958   73.4376   81.2001 C   0  0  0  0  0  0  0  0  0  0  0  0
    2.1573   72.9819   81.6114 O   0  0  0  0  0  0  0  0  0  0  0  0
  1  2  1  0
  2  3  2  0
  3  4  1  0
  4  5  2  0
  5  6  1  0
  6  7  1  6
  7  8  1  0
  8  9  2  0
  9 10  1  0
 10 11  2  0
 10 12  2  0
 10 13  1  0
 13 14  2  0
 14 15  1  0
 15 16  1  0
 16 17  2  0
 17 18  1  0
 18 19  2  0
 19 20  1  0
 19 21  1  0
 21 22  1  0
 22 23  2  0
 22 24  1  0
 24 25  1  0
 24 26  1  0
 21 27  2  0
 27 28  1  0
  6 29  1  0
 29 30  1  0
 29 31  1  0
 29 32  1  0
  5 33  1  0
 33  2  1  0
 14  8  1  0
 27 16  1  0
M  END
>  <shape_align_shape_tanimoto>  (1) 
0.68538411647203978

>  <shape_align_color_tanimoto>  (1) 
0.033136496085424655

>  <metric>  (1) 
shape

>  <metric_score>  (1) 
0.685

>  <template_pid>  (1) 
6QZH

>  <template_shape_score>  (1) 
0.685

>  <template_color_score>  (1) 
0.033

>  <template_combo_score>  (1) 
0.359

$$$$
6QZH_color_pose
     RDKit          3D

 33 35  0  0  0  0  0  0  0  0999 V2000
    2.4662   73.5457   82.6485 C   0  0  0  0  0  0  0  0  0  0  0  0
    1.6721   73.1356   81.4404 C   0  0  0  0  0  0  0  0  0  0  0  0
    1.8049   71.9656   80.7329 C   0  0  0  0  0  0  0  0  0  0  0  0
    0.8582   72.0535   79.7157 C   0  0  0  0  0  0  0  0  0  0  0  0
    0.1946   73.2767   79.8557 C   0  0  0  0  0  0  0  0  0  0  0  0
   -0.8945   73.7688   78.9721 C   0  0  2  0  0  0  0  0  0  0  0  0
   -0.5993   75.1715   78.6815 N   0  0  0  0  0  0  0  0  0  0  0  0
    0.5955   75.5013   77.9047 C   0  0  0  0  0  0  0  0  0  0  0  0
    1.0103   74.6560   77.0345 N   0  0  0  0  0  0  0  0  0  0  0  0
    2.4087   75.3487   76.3157 S   0  0  0  0  0  0  0  0  0  0  0  0
    3.6424   74.5410   76.5549 O   0  0  0  0  0  0  0  0  0  0  0  0
    2.1973   75.6393   74.8587 O   0  0  0  0  0  0  0  0  0  0  0  0
    2.3802   76.7941   77.2414 N   0  0  0  0  0  0  0  0  0  0  0  0
    1.3697   76.7046   78.0185 C   0  0  0  0  0  0  0  0  0  0  0  0
    1.0598   77.7818   78.9382 N   0  0  0  0  0  0  0  0  0  0  0  0
    2.0625   78.4749   79.6711 C   0  0  0  0  0  0  0  0  0  0  0  0
    3.3822   78.1308   79.6033 C   0  0  0  0  0  0  0  0  0  0  0  0
    4.2830   78.8501   80.3385 C   0  0  0  0  0  0  0  0  0  0  0  0
    3.8928   79.9270   81.1570 C   0  0  0  0  0  0  0  0  0  0  0  0
    4.9817   80.5138   81.9646 C   0  0  0  0  0  0  0  0  0  0  0  0
    2.5774   80.2871   81.2334 C   0  0  0  0  0  0  0  0  0  0  0  0
    1.9957   81.3057   82.0616 C   0  0  0  0  0  0  0  0  0  0  0  0
    0.7798   80.9745   82.4646 O   0  0  0  0  0  0  0  0  0  0  0  0
    2.4115   82.5403   82.5176 N   0  0  0  0  0  0  0  0  0  0  0  0
    3.6058   83.2986   82.2672 C   0  0  0  0  0  0  0  0  0  0  0  0
    1.4685   83.2405   83.4542 C   0  0  0  0  0  0  0  0  0  0  0  0
    1.6895   79.5278   80.4703 C   0  0  0  0  0  0  0  0  0  0  0  0
    0.3128   79.8355   80.4982 O   0  0  0  0  0  0  0  0  0  0  0  0
   -2.1858   73.7505   79.7903 C   0  0  0  0  0  0  0  0  0  0  0  0
   -2.4492   72.3085   80.2448 C   0  0  0  0  0  0  0  0  0  0  0  0
   -3.3445   74.1832   78.9147 C   0  0  0  0  0  0  0  0  0  0  0  0
   -2.1152   74.6820   80.9705 C   0  0  0  0  0  0  0  0  0  0  0  0
    0.7390   73.8466   80.8963 O   0  0  0  0  0  0  0  0  0  0  0  0
  1  2  1  0
  2  3  2  0
  3  4  1  0
  4  5  2  0
  5  6  1  0
  6  7  1  1
  7  8  1  0
  8  9  2  0
  9 10  1  0
 10 11  2  0
 10 12  2  0
 10 13  1  0
 13 14  2  0
 14 15  1  0
 15 16  1  0
 16 17  2  0
 17 18  1  0
 18 19  2  0
 19 20  1  0
 19 21  1  0
 21 22  1  0
 22 23  2  0
 22 24  1  0
 24 25  1  0
 24 26  1  0
 21 27  2  0
 27 28  1  0
  6 29  1  0
 29 30  1  0
 29 31  1  0
 29 32  1  0
  5 33  1  0
 33  2  1  0
 14  8  1  0
 27 16  1  0
M  END
>  <shape_align_shape_tanimoto>  (2) 
0.57792250363487407

>  <shape_align_color_tanimoto>  (2) 
0.1061896069804098

>  <metric>  (2) 
color

>  <metric_score>  (2) 
0.106

>  <template_pid>  (2) 
6QZH

>  <template_shape_score>  (2) 
0.578

>  <template_color_score>  (2) 
0.106

>  <template_combo_score>  (2) 
0.342

$$$$
6QZH_combo_pose
     RDKit          3D

 33 35  0  0  0  0  0  0  0  0999 V2000
    3.1689   81.0572   82.3874 C   0  0  0  0  0  0  0  0  0  0  0  0
    2.9527   80.0802   81.2837 C   0  0  0  0  0  0  0  0  0  0  0  0
    3.8703   79.3961   80.5522 C   0  0  0  0  0  0  0  0  0  0  0  0
    3.1848   78.6107   79.6446 C   0  0  0  0  0  0  0  0  0  0  0  0
    1.8487   78.8737   79.8875 C   0  0  0  0  0  0  0  0  0  0  0  0
    0.6994   78.2257   79.1162 C   0  0  2  0  0  0  0  0  0  0  0  0
    0.9686   76.8648   78.9985 N   0  0  0  0  0  0  0  0  0  0  0  0
    0.0575   75.7893   78.6888 C   0  0  0  0  0  0  0  0  0  0  0  0
   -1.0258   75.9947   78.0704 N   0  0  0  0  0  0  0  0  0  0  0  0
   -1.8536   74.5231   77.8722 S   0  0  0  0  0  0  0  0  0  0  0  0
   -2.0028   74.1421   76.4462 O   0  0  0  0  0  0  0  0  0  0  0  0
   -3.1526   74.4760   78.6226 O   0  0  0  0  0  0  0  0  0  0  0  0
   -0.6401   73.6063   78.6816 N   0  0  0  0  0  0  0  0  0  0  0  0
    0.2965   74.4085   79.0514 C   0  0  0  0  0  0  0  0  0  0  0  0
    1.4498   73.8839   79.7581 N   0  0  0  0  0  0  0  0  0  0  0  0
    1.3533   72.8964   80.7652 C   0  0  0  0  0  0  0  0  0  0  0  0
    0.1602   72.4121   81.1919 C   0  0  0  0  0  0  0  0  0  0  0  0
    0.1474   71.4524   82.1641 C   0  0  0  0  0  0  0  0  0  0  0  0
    1.3416   70.9634   82.7245 C   0  0  0  0  0  0  0  0  0  0  0  0
    1.1545   69.8491   83.6877 C   0  0  0  0  0  0  0  0  0  0  0  0
    2.5581   71.4324   82.3204 C   0  0  0  0  0  0  0  0  0  0  0  0
    3.8566   71.0076   82.7348 C   0  0  0  0  0  0  0  0  0  0  0  0
    4.7470   71.1143   81.7579 O   0  0  0  0  0  0  0  0  0  0  0  0
    4.3955   70.5241   83.9111 N   0  0  0  0  0  0  0  0  0  0  0  0
    3.8096   70.3190   85.2034 C   0  0  0  0  0  0  0  0  0  0  0  0
    5.8409   70.1342   83.8512 C   0  0  0  0  0  0  0  0  0  0  0  0
    2.5205   72.4203   81.3137 C   0  0  0  0  0  0  0  0  0  0  0  0
    3.7266   72.9649   80.8279 O   0  0  0  0  0  0  0  0  0  0  0  0
    0.3557   79.1340   78.0400 C   0  0  0  0  0  0  0  0  0  0  0  0
   -0.0284   80.4386   78.8045 C   0  0  0  0  0  0  0  0  0  0  0  0
   -0.8940   78.8195   77.2553 C   0  0  0  0  0  0  0  0  0  0  0  0
    1.4926   79.5628   77.1405 C   0  0  0  0  0  0  0  0  0  0  0  0
    1.7546   79.7445   80.8604 O   0  0  0  0  0  0  0  0  0  0  0  0
  1  2  1  0
  2  3  2  0
  3  4  1  0
  4  5  2  0
  5  6  1  0
  6  7  1  6
  7  8  1  0
  8  9  2  0
  9 10  1  0
 10 11  2  0
 10 12  2  0
 10 13  1  0
 13 14  2  0
 14 15  1  0
 15 16  1  0
 16 17  2  0
 17 18  1  0
 18 19  2  0
 19 20  1  0
 19 21  1  0
 21 22  1  0
 22 23  2  0
 22 24  1  0
 24 25  1  0
 24 26  1  0
 21 27  2  0
 27 28  1  0
  6 29  1  0
 29 30  1  0
 29 31  1  0
 29 32  1  0
  5 33  1  0
 33  2  1  0
 14  8  1  0
 27 16  1  0
M  END
>  <shape_align_shape_tanimoto>  (3) 
0.63356107518838189

>  <shape_align_color_tanimoto>  (3) 
0.085144791365334815

>  <metric>  (3) 
combo

>  <metric_score>  (3) 
0.359

>  <template_pid>  (3) 
6QZH

>  <template_shape_score>  (3) 
0.634

>  <template_color_score>  (3) 
0.085

>  <template_combo_score>  (3) 
0.359

$$$$
