6JT3_shape_pose
     RDKit          3D

 29 31  0  0  0  0  0  0  0  0999 V2000
   21.5235    8.4860   25.9404 C   0  0  0  0  0  0  0  0  0  0  0  0
   20.9245    8.8779   24.6203 C   0  0  1  0  0  0  0  0  0  0  0  0
   19.3061    9.7495   24.8444 S   0  0  0  0  0  0  0  0  0  0  0  0
   18.8669   10.0161   23.0830 C   0  0  0  0  0  0  0  0  0  0  0  0
   17.6470   10.1183   22.6969 N   0  0  0  0  0  0  0  0  0  0  0  0
   19.9962   10.0961   22.1934 N   0  0  0  0  0  0  0  0  0  0  0  0
   21.2727   10.5650   22.7225 C   0  0  2  0  0  0  0  0  0  0  0  0
   21.0333   11.9843   23.2336 C   0  0  0  0  0  0  0  0  0  0  0  0
   22.3206   10.6409   21.6609 C   0  0  0  0  0  0  0  0  0  0  0  0
   22.9810   11.8072   21.3048 C   0  0  0  0  0  0  0  0  0  0  0  0
   23.9570   11.8361   20.3054 C   0  0  0  0  0  0  0  0  0  0  0  0
   24.5782   13.0779   20.0108 N   0  0  0  0  0  0  0  0  0  0  0  0
   25.5870   13.3018   19.0319 C   0  0  0  0  0  0  0  0  0  0  0  0
   26.0436   12.3839   18.3040 O   0  0  0  0  0  0  0  0  0  0  0  0
   26.1463   14.6739   18.8377 C   0  0  0  0  0  0  0  0  0  0  0  0
   27.1311   14.9217   17.8899 C   0  0  0  0  0  0  0  0  0  0  0  0
   27.6165   16.1794   17.7401 N   0  0  0  0  0  0  0  0  0  0  0  0
   27.1730   17.2197   18.4887 C   0  0  0  0  0  0  0  0  0  0  0  0
   27.6575   18.5260   18.3533 O   0  0  0  0  0  0  0  0  0  0  0  0
   28.6681   18.8232   17.3928 C   0  0  0  0  0  0  0  0  0  0  0  0
   28.1718   18.4951   16.1258 F   0  0  0  0  0  0  0  0  0  0  0  0
   26.1868   16.9651   19.4360 C   0  0  0  0  0  0  0  0  0  0  0  0
   25.6871   15.7154   19.6028 N   0  0  0  0  0  0  0  0  0  0  0  0
   24.2329   10.6318   19.6843 C   0  0  0  0  0  0  0  0  0  0  0  0
   23.5773    9.4316   20.0260 C   0  0  0  0  0  0  0  0  0  0  0  0
   22.6211    9.4309   21.0128 C   0  0  0  0  0  0  0  0  0  0  0  0
   21.9771    8.2677   21.3528 F   0  0  0  0  0  0  0  0  0  0  0  0
   21.8426    9.7690   23.8535 C   0  0  1  0  0  0  0  0  0  0  0  0
   22.4829   10.6113   24.7924 F   0  0  0  0  0  0  0  0  0  0  0  0
  2  1  1  1
  2  3  1  0
  3  4  1  0
  4  5  2  0
  4  6  1  0
  6  7  1  0
  7  8  1  1
  7  9  1  0
  9 10  2  0
 10 11  1  0
 11 12  1  0
 12 13  1  0
 13 14  2  0
 13 15  1  0
 15 16  2  0
 16 17  1  0
 17 18  2  0
 18 19  1  0
 19 20  1  0
 20 21  1  0
 18 22  1  0
 22 23  2  0
 11 24  2  0
 24 25  1  0
 25 26  2  0
 26 27  1  0
  7 28  1  0
 28 29  1  1
 28  2  1  0
 26  9  1  0
 23 15  1  0
M  CHG  1   5   1
M  END
>  <shape_align_shape_tanimoto>  (1) 
0.66202557572154019

>  <shape_align_color_tanimoto>  (1) 
0.059606378968058857

>  <metric>  (1) 
shape

>  <metric_score>  (1) 
0.662

>  <template_pid>  (1) 
6JT3

>  <template_shape_score>  (1) 
0.662

>  <template_color_score>  (1) 
0.060

>  <template_combo_score>  (1) 
0.361

$$$$
6JT3_color_pose
     RDKit          3D

 29 31  0  0  0  0  0  0  0  0999 V2000
   20.1150   12.7062   24.5355 C   0  0  0  0  0  0  0  0  0  0  0  0
   21.0464   12.4343   23.3407 C   0  0  1  0  0  0  0  0  0  0  0  0
   22.5789   11.7973   24.0596 S   0  0  0  0  0  0  0  0  0  0  0  0
   22.3690   10.0021   24.1546 C   0  0  0  0  0  0  0  0  0  0  0  0
   23.1010    9.2682   24.9088 N   0  0  0  0  0  0  0  0  0  0  0  0
   21.3244    9.4757   23.3234 N   0  0  0  0  0  0  0  0  0  0  0  0
   20.9901   10.2080   22.1054 C   0  0  2  0  0  0  0  0  0  0  0  0
   19.9211    9.3537   21.4057 C   0  0  0  0  0  0  0  0  0  0  0  0
   22.2110   10.2549   21.2225 C   0  0  0  0  0  0  0  0  0  0  0  0
   22.7786   11.4434   20.8239 C   0  0  0  0  0  0  0  0  0  0  0  0
   23.9087   11.4496   19.9967 C   0  0  0  0  0  0  0  0  0  0  0  0
   24.4294   12.7117   19.6338 N   0  0  0  0  0  0  0  0  0  0  0  0
   25.5522   12.9387   18.8142 C   0  0  0  0  0  0  0  0  0  0  0  0
   26.2090   12.0262   18.3193 O   0  0  0  0  0  0  0  0  0  0  0  0
   25.9841   14.3249   18.5183 C   0  0  0  0  0  0  0  0  0  0  0  0
   27.0789   14.5845   17.7196 C   0  0  0  0  0  0  0  0  0  0  0  0
   27.4353   15.8605   17.4774 N   0  0  0  0  0  0  0  0  0  0  0  0
   26.7633   16.9118   17.9857 C   0  0  0  0  0  0  0  0  0  0  0  0
   27.1551   18.2175   17.7179 O   0  0  0  0  0  0  0  0  0  0  0  0
   28.2962   18.4746   16.8853 C   0  0  0  0  0  0  0  0  0  0  0  0
   28.1521   17.9587   15.6216 F   0  0  0  0  0  0  0  0  0  0  0  0
   25.6511   16.6531   18.7972 C   0  0  0  0  0  0  0  0  0  0  0  0
   25.3093   15.3714   19.0286 N   0  0  0  0  0  0  0  0  0  0  0  0
   24.3914   10.2409   19.6259 C   0  0  0  0  0  0  0  0  0  0  0  0
   23.8270    9.0214   20.0215 C   0  0  0  0  0  0  0  0  0  0  0  0
   22.7159    9.0371   20.8353 C   0  0  0  0  0  0  0  0  0  0  0  0
   22.1998    7.8447   21.1983 F   0  0  0  0  0  0  0  0  0  0  0  0
   20.3912   11.5464   22.3526 C   0  0  1  0  0  0  0  0  0  0  0  0
   19.0337   11.3480   22.6538 F   0  0  0  0  0  0  0  0  0  0  0  0
  2  1  1  1
  2  3  1  0
  3  4  1  0
  4  5  2  0
  4  6  1  0
  6  7  1  0
  7  8  1  6
  7  9  1  0
  9 10  2  0
 10 11  1  0
 11 12  1  0
 12 13  1  0
 13 14  2  0
 13 15  1  0
 15 16  2  0
 16 17  1  0
 17 18  2  0
 18 19  1  0
 19 20  1  0
 20 21  1  0
 18 22  1  0
 22 23  2  0
 11 24  2  0
 24 25  1  0
 25 26  2  0
 26 27  1  0
  7 28  1  0
 28 29  1  1
 28  2  1  0
 26  9  1  0
 23 15  1  0
M  CHG  1   5   1
M  END
>  <shape_align_shape_tanimoto>  (2) 
0.65130195443406924

>  <shape_align_color_tanimoto>  (2) 
0.17914246756606081

>  <metric>  (2) 
color

>  <metric_score>  (2) 
0.179

>  <template_pid>  (2) 
6JT3

>  <template_shape_score>  (2) 
0.651

>  <template_color_score>  (2) 
0.179

>  <template_combo_score>  (2) 
0.415

$$$$
6JT3_combo_pose
     RDKit          3D

 29 31  0  0  0  0  0  0  0  0999 V2000
   20.1150   12.7062   24.5355 C   0  0  0  0  0  0  0  0  0  0  0  0
   21.0464   12.4343   23.3407 C   0  0  1  0  0  0  0  0  0  0  0  0
   22.5789   11.7973   24.0596 S   0  0  0  0  0  0  0  0  0  0  0  0
   22.3690   10.0021   24.1546 C   0  0  0  0  0  0  0  0  0  0  0  0
   23.1010    9.2682   24.9088 N   0  0  0  0  0  0  0  0  0  0  0  0
   21.3244    9.4757   23.3234 N   0  0  0  0  0  0  0  0  0  0  0  0
   20.9901   10.2080   22.1054 C   0  0  2  0  0  0  0  0  0  0  0  0
   19.9211    9.3537   21.4057 C   0  0  0  0  0  0  0  0  0  0  0  0
   22.2110   10.2549   21.2225 C   0  0  0  0  0  0  0  0  0  0  0  0
   22.7786   11.4434   20.8239 C   0  0  0  0  0  0  0  0  0  0  0  0
   23.9087   11.4496   19.9967 C   0  0  0  0  0  0  0  0  0  0  0  0
   24.4294   12.7117   19.6338 N   0  0  0  0  0  0  0  0  0  0  0  0
   25.5522   12.9387   18.8142 C   0  0  0  0  0  0  0  0  0  0  0  0
   26.2090   12.0262   18.3193 O   0  0  0  0  0  0  0  0  0  0  0  0
   25.9841   14.3249   18.5183 C   0  0  0  0  0  0  0  0  0  0  0  0
   27.0789   14.5845   17.7196 C   0  0  0  0  0  0  0  0  0  0  0  0
   27.4353   15.8605   17.4774 N   0  0  0  0  0  0  0  0  0  0  0  0
   26.7633   16.9118   17.9857 C   0  0  0  0  0  0  0  0  0  0  0  0
   27.1551   18.2175   17.7179 O   0  0  0  0  0  0  0  0  0  0  0  0
   28.2962   18.4746   16.8853 C   0  0  0  0  0  0  0  0  0  0  0  0
   28.1521   17.9587   15.6216 F   0  0  0  0  0  0  0  0  0  0  0  0
   25.6511   16.6531   18.7972 C   0  0  0  0  0  0  0  0  0  0  0  0
   25.3093   15.3714   19.0286 N   0  0  0  0  0  0  0  0  0  0  0  0
   24.3914   10.2409   19.6259 C   0  0  0  0  0  0  0  0  0  0  0  0
   23.8270    9.0214   20.0215 C   0  0  0  0  0  0  0  0  0  0  0  0
   22.7159    9.0371   20.8353 C   0  0  0  0  0  0  0  0  0  0  0  0
   22.1998    7.8447   21.1983 F   0  0  0  0  0  0  0  0  0  0  0  0
   20.3912   11.5464   22.3526 C   0  0  1  0  0  0  0  0  0  0  0  0
   19.0337   11.3480   22.6538 F   0  0  0  0  0  0  0  0  0  0  0  0
  2  1  1  1
  2  3  1  0
  3  4  1  0
  4  5  2  0
  4  6  1  0
  6  7  1  0
  7  8  1  6
  7  9  1  0
  9 10  2  0
 10 11  1  0
 11 12  1  0
 12 13  1  0
 13 14  2  0
 13 15  1  0
 15 16  2  0
 16 17  1  0
 17 18  2  0
 18 19  1  0
 19 20  1  0
 20 21  1  0
 18 22  1  0
 22 23  2  0
 11 24  2  0
 24 25  1  0
 25 26  2  0
 26 27  1  0
  7 28  1  0
 28 29  1  1
 28  2  1  0
 26  9  1  0
 23 15  1  0
M  CHG  1   5   1
M  END
>  <shape_align_shape_tanimoto>  (3) 
0.65130195443406924

>  <shape_align_color_tanimoto>  (3) 
0.17914246756606081

>  <metric>  (3) 
combo

>  <metric_score>  (3) 
0.415

>  <template_pid>  (3) 
6JT3

>  <template_shape_score>  (3) 
0.651

>  <template_color_score>  (3) 
0.179

>  <template_combo_score>  (3) 
0.415

$$$$
