4JU4_shape_pose
     RDKit          3D

 28 30  0  0  0  0  0  0  0  0999 V2000
  -21.0083   -7.5719   30.5070 O   0  0  0  0  0  0  0  0  0  0  0  0
  -22.0287   -6.8983   30.1313 C   0  0  0  0  0  0  0  0  0  0  0  0
  -21.7420   -5.6328   29.6322 O   0  0  0  0  0  0  0  0  0  0  0  0
  -23.3799   -7.4345   30.2270 C   0  0  0  0  0  0  0  0  0  0  0  0
  -23.5190   -8.7077   30.7364 C   0  0  0  0  0  0  0  0  0  0  0  0
  -24.7331   -9.3434   30.8805 C   0  0  0  0  0  0  0  0  0  0  0  0
  -24.7824  -10.6317   31.4047 O   0  0  0  0  0  0  0  0  0  0  0  0
  -24.9143  -10.7549   32.7826 C   0  0  0  0  0  0  0  0  0  0  0  0
  -23.7338  -10.8102   33.5262 C   0  0  0  0  0  0  0  0  0  0  0  0
  -23.7558  -10.9320   34.9004 C   0  0  0  0  0  0  0  0  0  0  0  0
  -24.9903  -10.9977   35.5183 C   0  0  0  0  0  0  0  0  0  0  0  0
  -26.1750  -10.9455   34.8092 C   0  0  0  0  0  0  0  0  0  0  0  0
  -26.1394  -10.8218   33.4150 C   0  0  0  0  0  0  0  0  0  0  0  0
  -25.8580   -8.6515   30.4880 C   0  0  0  0  0  0  0  0  0  0  0  0
  -25.7455   -7.3785   29.9762 C   0  0  0  0  0  0  0  0  0  0  0  0
  -24.5054   -6.7406   29.8338 C   0  0  0  0  0  0  0  0  0  0  0  0
  -24.3806   -5.4298   29.3515 N   0  0  0  0  0  0  0  0  0  0  0  0
  -24.9727   -4.7990   27.8823 S   0  0  0  0  0  0  0  0  0  0  0  0
  -24.7428   -3.3162   27.7710 O   0  0  0  0  0  0  0  0  0  0  0  0
  -26.4722   -4.9942   27.8664 O   0  0  0  0  0  0  0  0  0  0  0  0
  -24.2340   -5.6062   26.5397 C   0  0  0  0  0  0  0  0  0  0  0  0
  -23.4206   -4.8555   25.6827 C   0  0  0  0  0  0  0  0  0  0  0  0
  -22.7834   -5.4150   24.6015 C   0  0  0  0  0  0  0  0  0  0  0  0
  -22.9222   -6.7524   24.3158 C   0  0  0  0  0  0  0  0  0  0  0  0
  -22.0559   -7.5637   22.8284 Br  0  0  0  0  0  0  0  0  0  0  0  0
  -23.7137   -7.5139   25.1383 C   0  0  0  0  0  0  0  0  0  0  0  0
  -24.3545   -6.9327   26.2317 C   0  0  0  0  0  0  0  0  0  0  0  0
  -25.1231   -7.7424   26.9793 F   0  0  0  0  0  0  0  0  0  0  0  0
  1  2  2  0
  2  3  1  0
  2  4  1  0
  4  5  2  0
  5  6  1  0
  6  7  1  0
  7  8  1  0
  8  9  2  0
  9 10  1  0
 10 11  2  0
 11 12  1  0
 12 13  2  0
  6 14  2  0
 14 15  1  0
 15 16  2  0
 16 17  1  0
 17 18  1  0
 18 19  2  0
 18 20  2  0
 18 21  1  0
 21 22  2  0
 22 23  1  0
 23 24  2  0
 24 25  1  0
 24 26  1  0
 26 27  2  0
 27 28  1  0
 16  4  1  0
 27 21  1  0
 13  8  1  0
M  CHG  1   3  -1
M  END
>  <shape_align_shape_tanimoto>  (1) 
0.55100815018364779

>  <shape_align_color_tanimoto>  (1) 
0.043285483633345709

>  <metric>  (1) 
shape

>  <metric_score>  (1) 
0.551

>  <template_pid>  (1) 
4JU4

>  <template_shape_score>  (1) 
0.551

>  <template_color_score>  (1) 
0.043

>  <template_combo_score>  (1) 
0.297

$$$$
4JU4_color_pose
     RDKit          3D

 28 30  0  0  0  0  0  0  0  0999 V2000
  -21.2817   -7.9057   30.3823 O   0  0  0  0  0  0  0  0  0  0  0  0
  -21.2954   -7.3901   29.2582 C   0  0  0  0  0  0  0  0  0  0  0  0
  -20.0396   -7.0433   28.7385 O   0  0  0  0  0  0  0  0  0  0  0  0
  -22.4517   -7.1112   28.4353 C   0  0  0  0  0  0  0  0  0  0  0  0
  -22.2584   -6.5130   27.1910 C   0  0  0  0  0  0  0  0  0  0  0  0
  -23.2821   -6.1987   26.3344 C   0  0  0  0  0  0  0  0  0  0  0  0
  -23.0493   -5.6030   25.1022 O   0  0  0  0  0  0  0  0  0  0  0  0
  -22.8479   -6.4491   24.0120 C   0  0  0  0  0  0  0  0  0  0  0  0
  -23.9791   -6.8167   23.3047 C   0  0  0  0  0  0  0  0  0  0  0  0
  -23.9105   -7.6506   22.2054 C   0  0  0  0  0  0  0  0  0  0  0  0
  -22.6398   -8.1078   21.8392 C   0  0  0  0  0  0  0  0  0  0  0  0
  -21.5184   -7.7367   22.5494 C   0  0  0  0  0  0  0  0  0  0  0  0
  -21.5981   -6.9001   23.6501 C   0  0  0  0  0  0  0  0  0  0  0  0
  -24.5728   -6.4734   26.6894 C   0  0  0  0  0  0  0  0  0  0  0  0
  -24.7903   -7.0642   27.9135 C   0  0  0  0  0  0  0  0  0  0  0  0
  -23.7524   -7.3870   28.7899 C   0  0  0  0  0  0  0  0  0  0  0  0
  -24.0523   -8.0058   30.0312 N   0  0  0  0  0  0  0  0  0  0  0  0
  -25.7224   -8.1982   30.5144 S   0  0  0  0  0  0  0  0  0  0  0  0
  -25.7962   -8.9212   31.8440 O   0  0  0  0  0  0  0  0  0  0  0  0
  -26.4144   -9.0188   29.4663 O   0  0  0  0  0  0  0  0  0  0  0  0
  -26.4544   -6.6318   30.6603 C   0  0  0  0  0  0  0  0  0  0  0  0
  -25.8161   -5.4414   30.4950 C   0  0  0  0  0  0  0  0  0  0  0  0
  -26.4625   -4.2316   30.6386 C   0  0  0  0  0  0  0  0  0  0  0  0
  -27.7953   -4.1596   30.9589 C   0  0  0  0  0  0  0  0  0  0  0  0
  -28.7259   -2.5280   31.1667 Br  0  0  0  0  0  0  0  0  0  0  0  0
  -28.4658   -5.3612   31.1325 C   0  0  0  0  0  0  0  0  0  0  0  0
  -27.8145   -6.5730   30.9876 C   0  0  0  0  0  0  0  0  0  0  0  0
  -28.5387   -7.7171   31.1735 F   0  0  0  0  0  0  0  0  0  0  0  0
  1  2  2  0
  2  3  1  0
  2  4  1  0
  4  5  2  0
  5  6  1  0
  6  7  1  0
  7  8  1  0
  8  9  2  0
  9 10  1  0
 10 11  2  0
 11 12  1  0
 12 13  2  0
  6 14  2  0
 14 15  1  0
 15 16  2  0
 16 17  1  0
 17 18  1  0
 18 19  2  0
 18 20  2  0
 18 21  1  0
 21 22  2  0
 22 23  1  0
 23 24  2  0
 24 25  1  0
 24 26  1  0
 26 27  2  0
 27 28  1  0
 16  4  1  0
 27 21  1  0
 13  8  1  0
M  CHG  1   3  -1
M  END
>  <shape_align_shape_tanimoto>  (2) 
0.47195469341419327

>  <shape_align_color_tanimoto>  (2) 
0.070490587391135714

>  <metric>  (2) 
color

>  <metric_score>  (2) 
0.070

>  <template_pid>  (2) 
4JU4

>  <template_shape_score>  (2) 
0.472

>  <template_color_score>  (2) 
0.070

>  <template_combo_score>  (2) 
0.271

$$$$
4JU4_combo_pose
     RDKit          3D

 28 30  0  0  0  0  0  0  0  0999 V2000
  -22.2400   -5.4468   29.9070 O   0  0  0  0  0  0  0  0  0  0  0  0
  -22.3116   -6.5974   30.3670 C   0  0  0  0  0  0  0  0  0  0  0  0
  -21.1120   -7.1683   30.8191 O   0  0  0  0  0  0  0  0  0  0  0  0
  -23.5494   -7.3633   30.4575 C   0  0  0  0  0  0  0  0  0  0  0  0
  -23.5201   -8.6393   30.9843 C   0  0  0  0  0  0  0  0  0  0  0  0
  -24.6429   -9.4339   31.1045 C   0  0  0  0  0  0  0  0  0  0  0  0
  -24.6020  -10.7185   31.6368 O   0  0  0  0  0  0  0  0  0  0  0  0
  -24.7920  -10.8433   33.0254 C   0  0  0  0  0  0  0  0  0  0  0  0
  -26.0951  -11.0138   33.4993 C   0  0  0  0  0  0  0  0  0  0  0  0
  -26.3343  -11.1415   34.8610 C   0  0  0  0  0  0  0  0  0  0  0  0
  -25.2739  -11.0997   35.7556 C   0  0  0  0  0  0  0  0  0  0  0  0
  -23.9923  -10.9299   35.2622 C   0  0  0  0  0  0  0  0  0  0  0  0
  -23.7291  -10.8004   33.9100 C   0  0  0  0  0  0  0  0  0  0  0  0
  -25.8405   -8.9019   30.6691 C   0  0  0  0  0  0  0  0  0  0  0  0
  -25.8948   -7.6290   30.1392 C   0  0  0  0  0  0  0  0  0  0  0  0
  -24.7471   -6.8298   30.0216 C   0  0  0  0  0  0  0  0  0  0  0  0
  -24.8379   -5.5234   29.5157 N   0  0  0  0  0  0  0  0  0  0  0  0
  -25.4980   -5.0279   28.0224 S   0  0  0  0  0  0  0  0  0  0  0  0
  -25.4886   -3.5255   27.8830 O   0  0  0  0  0  0  0  0  0  0  0  0
  -26.9417   -5.4780   27.9614 O   0  0  0  0  0  0  0  0  0  0  0  0
  -24.5941   -5.7237   26.7118 C   0  0  0  0  0  0  0  0  0  0  0  0
  -23.9008   -4.8658   25.8561 C   0  0  0  0  0  0  0  0  0  0  0  0
  -23.1473   -5.3281   24.8003 C   0  0  0  0  0  0  0  0  0  0  0  0
  -23.0428   -6.6690   24.5387 C   0  0  0  0  0  0  0  0  0  0  0  0
  -21.9864   -7.2550   23.0648 Br  0  0  0  0  0  0  0  0  0  0  0  0
  -23.7188   -7.5346   25.3701 C   0  0  0  0  0  0  0  0  0  0  0  0
  -24.4822   -7.0584   26.4400 C   0  0  0  0  0  0  0  0  0  0  0  0
  -25.1128   -7.9679   27.1819 F   0  0  0  0  0  0  0  0  0  0  0  0
  1  2  2  0
  2  3  1  0
  2  4  1  0
  4  5  2  0
  5  6  1  0
  6  7  1  0
  7  8  1  0
  8  9  2  0
  9 10  1  0
 10 11  2  0
 11 12  1  0
 12 13  2  0
  6 14  2  0
 14 15  1  0
 15 16  2  0
 16 17  1  0
 17 18  1  0
 18 19  2  0
 18 20  2  0
 18 21  1  0
 21 22  2  0
 22 23  1  0
 23 24  2  0
 24 25  1  0
 24 26  1  0
 26 27  2  0
 27 28  1  0
 16  4  1  0
 27 21  1  0
 13  8  1  0
M  CHG  1   3  -1
M  END
>  <shape_align_shape_tanimoto>  (3) 
0.55097764379977676

>  <shape_align_color_tanimoto>  (3) 
0.043531228359313903

>  <metric>  (3) 
combo

>  <metric_score>  (3) 
0.297

>  <template_pid>  (3) 
4JU4

>  <template_shape_score>  (3) 
0.551

>  <template_color_score>  (3) 
0.044

>  <template_combo_score>  (3) 
0.297

$$$$
