4YLK_shape_pose
     RDKit          3D

 22 25  0  0  0  0  0  0  0  0999 V2000
   65.4958   64.7581   58.7057 O   0  0  0  0  0  0  0  0  0  0  0  0
   65.6299   64.8000   57.4849 C   0  0  0  0  0  0  0  0  0  0  0  0
   67.0103   64.9586   57.1340 O   0  0  0  0  0  0  0  0  0  0  0  0
   64.7247   64.7257   56.3869 C   0  0  0  0  0  0  0  0  0  0  0  0
   65.2704   64.8133   55.1313 N   0  0  0  0  0  0  0  0  0  0  0  0
   64.5723   64.7624   53.9992 C   0  0  0  0  0  0  0  0  0  0  0  0
   65.2287   64.8609   52.7960 C   0  0  0  0  0  0  0  0  0  0  0  0
   64.5488   64.8136   51.5922 C   0  0  0  0  0  0  0  0  0  0  0  0
   63.1791   64.6626   51.6580 C   0  0  0  0  0  0  0  0  0  0  0  0
   62.1295   64.5888   49.8329 I   0  0  0  0  0  0  0  0  0  0  0  0
   62.4825   64.5601   52.8435 C   0  0  0  0  0  0  0  0  0  0  0  0
   63.2073   64.6130   54.0155 C   0  0  0  0  0  0  0  0  0  0  0  0
   62.6160   64.5206   55.2639 C   0  0  0  0  0  0  0  0  0  0  0  0
   61.3132   64.3723   55.5389 N   0  0  0  0  0  0  0  0  0  0  0  0
   61.2367   64.3339   56.8834 C   0  0  0  0  0  0  0  0  0  0  0  0
   60.0997   64.1928   57.6470 C   0  0  0  0  0  0  0  0  0  0  0  0
   58.5193   64.0365   56.9170 Cl  0  0  0  0  0  0  0  0  0  0  0  0
   60.2481   64.1786   59.0083 C   0  0  0  0  0  0  0  0  0  0  0  0
   61.4825   64.3005   59.5833 C   0  0  0  0  0  0  0  0  0  0  0  0
   62.6375   64.4440   58.8019 C   0  0  0  0  0  0  0  0  0  0  0  0
   62.4881   64.4579   57.4501 C   0  0  0  0  0  0  0  0  0  0  0  0
   63.3697   64.5771   56.4205 C   0  0  0  0  0  0  0  0  0  0  0  0
  1  2  2  0
  2  3  1  0
  2  4  1  0
  4  5  2  0
  5  6  1  0
  6  7  2  0
  7  8  1  0
  8  9  2  0
  9 10  1  0
  9 11  1  0
 11 12  2  0
 12 13  1  0
 13 14  1  0
 14 15  1  0
 15 16  2  0
 16 17  1  0
 16 18  1  0
 18 19  2  0
 19 20  1  0
 20 21  2  0
 21 22  1  0
 22  4  1  0
 12  6  1  0
 22 13  2  0
 21 15  1  0
M  CHG  1   3  -1
M  END
>  <shape_align_shape_tanimoto>  (1) 
0.77620000191455851

>  <shape_align_color_tanimoto>  (1) 
0.17226718711960526

>  <metric>  (1) 
shape

>  <metric_score>  (1) 
0.776

>  <template_pid>  (1) 
4YLK

>  <template_shape_score>  (1) 
0.776

>  <template_color_score>  (1) 
0.172

>  <template_combo_score>  (1) 
0.474

$$$$
4YLK_color_pose
     RDKit          3D

 22 25  0  0  0  0  0  0  0  0999 V2000
   66.6298   64.9846   56.5977 O   0  0  0  0  0  0  0  0  0  0  0  0
   65.4685   64.8338   57.1060 C   0  0  0  0  0  0  0  0  0  0  0  0
   65.5107   64.8954   58.4276 O   0  0  0  0  0  0  0  0  0  0  0  0
   64.4642   64.6450   56.1491 C   0  0  0  0  0  0  0  0  0  0  0  0
   64.8911   64.6547   54.8695 N   0  0  0  0  0  0  0  0  0  0  0  0
   64.0923   64.4938   53.8541 C   0  0  0  0  0  0  0  0  0  0  0  0
   64.6044   64.5166   52.5868 C   0  0  0  0  0  0  0  0  0  0  0  0
   63.7621   64.3481   51.5433 C   0  0  0  0  0  0  0  0  0  0  0  0
   62.4323   64.1569   51.6828 C   0  0  0  0  0  0  0  0  0  0  0  0
   61.2335   63.9104   50.0373 I   0  0  0  0  0  0  0  0  0  0  0  0
   61.9420   64.1377   52.9586 C   0  0  0  0  0  0  0  0  0  0  0  0
   62.7729   64.3048   54.0106 C   0  0  0  0  0  0  0  0  0  0  0  0
   62.3098   64.2894   55.2805 C   0  0  0  0  0  0  0  0  0  0  0  0
   61.0779   64.1241   55.6936 N   0  0  0  0  0  0  0  0  0  0  0  0
   61.1453   64.1894   57.0142 C   0  0  0  0  0  0  0  0  0  0  0  0
   60.1219   64.0742   57.8848 C   0  0  0  0  0  0  0  0  0  0  0  0
   58.5141   63.8135   57.3483 Cl  0  0  0  0  0  0  0  0  0  0  0  0
   60.4042   64.1707   59.1916 C   0  0  0  0  0  0  0  0  0  0  0  0
   61.6592   64.3742   59.6105 C   0  0  0  0  0  0  0  0  0  0  0  0
   62.6979   64.4908   58.7187 C   0  0  0  0  0  0  0  0  0  0  0  0
   62.4111   64.3940   57.4223 C   0  0  0  0  0  0  0  0  0  0  0  0
   63.1607   64.4591   56.3232 C   0  0  0  0  0  0  0  0  0  0  0  0
  1  2  2  0
  2  3  1  0
  2  4  1  0
  4  5  2  0
  5  6  1  0
  6  7  2  0
  7  8  1  0
  8  9  2  0
  9 10  1  0
  9 11  1  0
 11 12  2  0
 12 13  1  0
 13 14  1  0
 14 15  1  0
 15 16  2  0
 16 17  1  0
 16 18  1  0
 18 19  2  0
 19 20  1  0
 20 21  2  0
 21 22  1  0
 22  4  1  0
 12  6  1  0
 22 13  2  0
 21 15  1  0
M  CHG  1   3  -1
M  END
>  <shape_align_shape_tanimoto>  (2) 
0.74989896512602527

>  <shape_align_color_tanimoto>  (2) 
0.19799963353030367

>  <metric>  (2) 
color

>  <metric_score>  (2) 
0.198

>  <template_pid>  (2) 
4YLK

>  <template_shape_score>  (2) 
0.750

>  <template_color_score>  (2) 
0.198

>  <template_combo_score>  (2) 
0.474

$$$$
4YLK_combo_pose
     RDKit          3D

 22 25  0  0  0  0  0  0  0  0999 V2000
   66.6525   64.8968   56.8244 O   0  0  0  0  0  0  0  0  0  0  0  0
   65.4276   64.7755   57.2671 C   0  0  0  0  0  0  0  0  0  0  0  0
   65.3941   64.7601   58.6085 O   0  0  0  0  0  0  0  0  0  0  0  0
   64.4646   64.6928   56.2208 C   0  0  0  0  0  0  0  0  0  0  0  0
   64.9736   64.7531   54.9473 N   0  0  0  0  0  0  0  0  0  0  0  0
   64.2343   64.6925   53.8321 C   0  0  0  0  0  0  0  0  0  0  0  0
   64.8457   64.7622   52.5972 C   0  0  0  0  0  0  0  0  0  0  0  0
   64.0755   64.6989   51.4482 C   0  0  0  0  0  0  0  0  0  0  0  0
   62.6983   64.5664   51.5221 C   0  0  0  0  0  0  0  0  0  0  0  0
   61.5120   64.4687   49.7801 I   0  0  0  0  0  0  0  0  0  0  0  0
   62.1093   64.4988   52.7587 C   0  0  0  0  0  0  0  0  0  0  0  0
   62.8694   64.5611   53.9070 C   0  0  0  0  0  0  0  0  0  0  0  0
   62.3236   64.4974   55.1728 C   0  0  0  0  0  0  0  0  0  0  0  0
   61.0283   64.3705   55.5008 N   0  0  0  0  0  0  0  0  0  0  0  0
   61.0015   64.3557   56.8429 C   0  0  0  0  0  0  0  0  0  0  0  0
   59.8998   64.2428   57.6598 C   0  0  0  0  0  0  0  0  0  0  0  0
   58.2953   64.0952   57.0084 Cl  0  0  0  0  0  0  0  0  0  0  0  0
   60.1058   64.2503   59.0099 C   0  0  0  0  0  0  0  0  0  0  0  0
   61.3626   64.3658   59.5332 C   0  0  0  0  0  0  0  0  0  0  0  0
   62.4866   64.4810   58.7020 C   0  0  0  0  0  0  0  0  0  0  0  0
   62.2728   64.4726   57.3674 C   0  0  0  0  0  0  0  0  0  0  0  0
   63.1155   64.5629   56.3055 C   0  0  0  0  0  0  0  0  0  0  0  0
  1  2  2  0
  2  3  1  0
  2  4  1  0
  4  5  2  0
  5  6  1  0
  6  7  2  0
  7  8  1  0
  8  9  2  0
  9 10  1  0
  9 11  1  0
 11 12  2  0
 12 13  1  0
 13 14  1  0
 14 15  1  0
 15 16  2  0
 16 17  1  0
 16 18  1  0
 18 19  2  0
 19 20  1  0
 20 21  2  0
 21 22  1  0
 22  4  1  0
 12  6  1  0
 22 13  2  0
 21 15  1  0
M  CHG  1   3  -1
M  END
>  <shape_align_shape_tanimoto>  (3) 
0.76352061862118537

>  <shape_align_color_tanimoto>  (3) 
0.19330690259458858

>  <metric>  (3) 
combo

>  <metric_score>  (3) 
0.478

>  <template_pid>  (3) 
4YLK

>  <template_shape_score>  (3) 
0.764

>  <template_color_score>  (3) 
0.193

>  <template_combo_score>  (3) 
0.478

$$$$
