4XEK_shape_pose
     RDKit          3D

107106  0  0  0  0  0  0  0  0999 V2000
  -27.9564   -9.5527   -0.0844 C   0  0  0  0  0  0  0  0  0  0  0  0
  -27.1076  -10.1284   -1.5919 S   0  0  0  0  0  0  0  0  0  0  0  0
  -26.9566   -8.6648   -2.7335 C   0  0  0  0  0  0  0  0  0  0  0  0
  -26.0344   -7.6744   -2.0762 C   0  0  0  0  0  0  0  0  0  0  0  0
  -25.7658   -6.4583   -2.9067 C   0  0  2  0  0  0  0  0  0  0  0  0
  -24.8588   -5.5191   -2.2276 N   0  0  0  0  0  0  0  0  0  0  0  0
  -23.7334   -4.8793   -2.7771 C   0  0  0  0  0  0  0  0  0  0  0  0
  -23.3457   -5.0134   -4.0028 O   0  0  0  0  0  0  0  0  0  0  0  0
  -22.9354   -3.9735   -1.8281 C   0  0  2  0  0  0  0  0  0  0  0  0
  -23.7996   -3.0973   -0.9689 C   0  0  0  0  0  0  0  0  0  0  0  0
  -22.8560   -2.2435   -0.0877 C   0  0  0  0  0  0  0  0  0  0  0  0
  -23.7093   -1.3274    0.8148 C   0  0  0  0  0  0  0  0  0  0  0  0
  -21.9325   -3.1219    0.7607 C   0  0  0  0  0  0  0  0  0  0  0  0
  -21.9100   -3.2604   -2.5400 N   0  0  0  0  0  0  0  0  0  0  0  0
  -20.6237   -3.7906   -2.8978 C   0  0  0  0  0  0  0  0  0  0  0  0
  -20.3032   -4.9950   -2.5879 O   0  0  0  0  0  0  0  0  0  0  0  0
  -19.6973   -2.9018   -3.6387 C   0  0  2  0  0  0  0  0  0  0  0  0
  -20.4403   -1.8552   -4.4698 C   0  0  0  0  0  0  0  0  0  0  0  0
  -18.6462   -3.5994   -4.3674 N   0  0  0  0  0  0  0  0  0  0  0  0
  -17.2918   -3.2170   -4.4820 C   0  0  0  0  0  0  0  0  0  0  0  0
  -16.7532   -2.2111   -3.9645 O   0  0  0  0  0  0  0  0  0  0  0  0
  -16.4089   -4.1136   -5.3295 C   0  0  2  0  0  0  0  0  0  0  0  0
  -16.0844   -5.4302   -4.6941 C   0  0  0  0  0  0  0  0  0  0  0  0
  -15.1931   -6.1971   -5.6566 C   0  0  0  0  0  0  0  0  0  0  0  0
  -14.8946   -5.6288   -6.7487 O   0  0  0  0  0  0  0  0  0  0  0  0
  -14.7461   -7.4777   -5.3030 O   0  0  0  0  0  0  0  0  0  0  0  0
  -15.1837   -3.3483   -5.6063 N   0  0  0  0  0  0  0  0  0  0  0  0
  -15.1492   -2.6630   -6.8485 C   0  0  0  0  0  0  0  0  0  0  0  0
  -16.1871   -2.7603   -7.6243 O   0  0  0  0  0  0  0  0  0  0  0  0
  -14.0516   -1.8246   -7.3891 C   0  0  2  0  0  0  0  0  0  0  0  0
  -13.4686   -0.8105   -6.4480 C   0  0  0  0  0  0  0  0  0  0  0  0
  -12.3373   -0.0007   -7.0574 C   0  0  0  0  0  0  0  0  0  0  0  0
  -11.1728   -0.9040   -7.4877 C   0  0  0  0  0  0  0  0  0  0  0  0
  -11.8141    0.9374   -5.9648 C   0  0  0  0  0  0  0  0  0  0  0  0
  -14.6175   -1.1988   -8.6121 N   0  0  0  0  0  0  0  0  0  0  0  0
  -15.1832    0.0898   -8.6828 C   0  0  0  0  0  0  0  0  0  0  0  0
  -15.2928    0.9146   -7.6981 O   0  0  0  0  0  0  0  0  0  0  0  0
  -15.7633    0.6862   -9.9812 C   0  0  2  0  0  0  0  0  0  0  0  0
  -14.7486    0.8069  -11.0703 C   0  0  0  0  0  0  0  0  0  0  0  0
  -15.3806    1.4198  -12.3286 C   0  0  0  0  0  0  0  0  0  0  0  0
  -14.3356    1.5212  -13.3772 C   0  0  0  0  0  0  0  0  0  0  0  0
  -14.6454    2.0275  -14.6819 N   0  0  0  0  0  0  0  0  0  0  0  0
  -13.1269    1.1597  -13.1461 O   0  0  0  0  0  0  0  0  0  0  0  0
  -16.3364    2.0075   -9.5816 N   0  0  0  0  0  0  0  0  0  0  0  0
  -17.7030    2.0129   -9.2199 C   0  0  0  0  0  0  0  0  0  0  0  0
  -18.3733    0.9110   -9.2658 O   0  0  0  0  0  0  0  0  0  0  0  0
  -18.4429    3.2167   -8.7720 C   0  0  2  0  0  0  0  0  0  0  0  0
  -17.7104    3.8487   -7.5488 C   0  0  0  0  0  0  0  0  0  0  0  0
  -19.7954    2.8021   -8.3374 N   0  0  0  0  0  0  0  0  0  0  0  0
  -20.9627    3.5778   -8.4403 C   0  0  0  0  0  0  0  0  0  0  0  0
  -20.8667    4.7443   -8.9486 O   0  0  0  0  0  0  0  0  0  0  0  0
  -22.3262    3.1528   -7.9921 C   0  0  2  0  0  0  0  0  0  0  0  0
  -22.7051    4.0184   -6.7395 C   0  0  0  0  0  0  0  0  0  0  0  0
  -22.3460    1.7464   -7.6077 N   0  0  0  0  0  0  0  0  0  0  0  0
  -23.4948    0.8929   -7.6948 C   0  0  0  0  0  0  0  0  0  0  0  0
  -24.5732    1.4401   -8.1121 O   0  0  0  0  0  0  0  0  0  0  0  0
  -23.4648   -0.5532   -7.3230 C   0  0  2  0  0  0  0  0  0  0  0  0
  -23.8683   -0.5840   -5.8107 C   0  0  0  0  0  0  0  0  0  0  0  0
  -22.1056   -1.0792   -7.3552 N   0  0  0  0  0  0  0  0  0  0  0  0
  -21.9636   -2.4592   -7.7770 C   0  0  0  0  0  0  0  0  0  0  0  0
  -23.0527   -3.0938   -8.0292 O   0  0  0  0  0  0  0  0  0  0  0  0
  -20.6791   -3.1442   -7.9316 C   0  0  2  0  0  0  0  0  0  0  0  0
  -19.9189   -2.5204   -9.1633 C   0  0  0  0  0  0  0  0  0  0  0  0
  -20.5316   -2.7789  -10.3636 O   0  0  0  0  0  0  0  0  0  0  0  0
  -20.7820   -4.5796   -8.1132 N   0  0  0  0  0  0  0  0  0  0  0  0
  -19.7739   -5.4038   -8.7261 C   0  0  0  0  0  0  0  0  0  0  0  0
  -18.7048   -4.9770   -9.2070 O   0  0  0  0  0  0  0  0  0  0  0  0
  -20.0280   -6.8809   -8.8001 C   0  0  1  0  0  0  0  0  0  0  0  0
  -20.6845   -7.3335   -7.5750 N   0  0  0  0  0  0  0  0  0  0  0  0
  -20.1901   -8.5195   -6.9877 C   0  0  0  0  0  0  0  0  0  0  0  0
  -19.2195   -9.1213   -7.5961 O   0  0  0  0  0  0  0  0  0  0  0  0
  -20.6295   -9.2063   -5.7234 C   0  0  1  0  0  0  0  0  0  0  0  0
  -21.1973   -8.1971   -4.8263 N   0  0  0  0  0  0  0  0  0  0  0  0
  -21.6184  -10.3010   -6.0240 C   0  0  0  0  0  0  0  0  0  0  0  0
  -22.0505  -11.1266   -4.8668 C   0  0  0  0  0  0  0  0  0  0  0  0
  -22.7271  -10.5071   -3.6763 C   0  0  0  0  0  0  0  0  0  0  0  0
  -23.0646  -11.6884   -2.7047 C   0  0  0  0  0  0  0  0  0  0  0  0
  -23.7096  -11.2276   -1.4916 N   0  0  0  0  0  0  0  0  0  0  0  0
  -20.8728   -7.2063  -10.0362 C   0  0  1  0  0  0  0  0  0  0  0  0
  -20.0799   -6.7528  -11.2582 C   0  0  0  0  0  0  0  0  0  0  0  0
  -21.0432   -8.5828  -10.1031 O   0  0  0  0  0  0  0  0  0  0  0  0
  -26.8796   -5.8215   -3.6277 C   0  0  0  0  0  0  0  0  0  0  0  0
  -27.9507   -6.3960   -4.0114 O   0  0  0  0  0  0  0  0  0  0  0  0
  -26.7704   -4.4286   -3.9495 N   0  0  0  0  0  0  0  0  0  0  0  0
  -27.7607   -3.6459   -4.6489 C   0  0  1  0  0  0  0  0  0  0  0  0
  -27.5163   -2.1810   -4.5181 C   0  0  0  0  0  0  0  0  0  0  0  0
  -27.8589   -4.0678   -6.0918 C   0  0  0  0  0  0  0  0  0  0  0  0
  -27.3348   -5.2092   -6.3573 O   0  0  0  0  0  0  0  0  0  0  0  0
  -28.4489   -3.3597   -7.1423 N   0  0  0  0  0  0  0  0  0  0  0  0
  -28.5698   -3.7993   -8.5252 C   0  0  1  0  0  0  0  0  0  0  0  0
  -29.5235   -2.9948   -9.3549 C   0  0  0  0  0  0  0  0  0  0  0  0
  -27.2095   -3.9946   -9.1785 C   0  0  0  0  0  0  0  0  0  0  0  0
  -26.1382   -3.7879   -8.5061 O   0  0  0  0  0  0  0  0  0  0  0  0
  -27.2109   -4.4196  -10.5444 N   0  0  0  0  0  0  0  0  0  0  0  0
  -25.9050   -4.6777  -11.2674 C   0  0  1  0  0  0  0  0  0  0  0  0
  -25.9581   -6.0342  -11.8522 C   0  0  0  0  0  0  0  0  0  0  0  0
  -24.8473   -6.6030  -12.6422 C   0  0  0  0  0  0  0  0  0  0  0  0
  -24.4676   -5.9365  -13.9405 C   0  0  0  0  0  0  0  0  0  0  0  0
  -25.1988   -8.0860  -12.9779 C   0  0  0  0  0  0  0  0  0  0  0  0
  -25.5889   -3.4880  -12.0748 C   0  0  0  0  0  0  0  0  0  0  0  0
  -26.5687   -2.6723  -12.3026 O   0  0  0  0  0  0  0  0  0  0  0  0
  -24.3346   -3.1151  -12.6276 N   0  0  0  0  0  0  0  0  0  0  0  0
  -24.2287   -1.8894  -13.3770 C   0  0  1  0  0  0  0  0  0  0  0  0
  -23.1628   -1.0387  -12.6491 C   0  0  0  0  0  0  0  0  0  0  0  0
  -23.7143   -2.1412  -14.7460 C   0  0  0  0  0  0  0  0  0  0  0  0
  -23.2322   -3.2100  -15.1871 O   0  0  0  0  0  0  0  0  0  0  0  0
  -23.7716   -1.0572  -15.6544 O   0  0  0  0  0  0  0  0  0  0  0  0
  1  2  1  0
  2  3  1  0
  3  4  1  0
  5  4  1  1
  5  6  1  0
  6  7  1  0
  7  8  2  0
  7  9  1  0
  9 10  1  6
 10 11  1  0
 11 12  1  0
 11 13  1  0
  9 14  1  0
 14 15  1  0
 15 16  2  0
 15 17  1  0
 17 18  1  6
 17 19  1  0
 19 20  1  0
 20 21  2  0
 20 22  1  0
 22 23  1  1
 23 24  1  0
 24 25  2  0
 24 26  1  0
 22 27  1  0
 27 28  1  0
 28 29  2  0
 28 30  1  0
 30 31  1  1
 31 32  1  0
 32 33  1  0
 32 34  1  0
 30 35  1  0
 35 36  1  0
 36 37  2  0
 36 38  1  0
 38 39  1  6
 39 40  1  0
 40 41  1  0
 41 42  1  0
 41 43  2  0
 38 44  1  0
 44 45  1  0
 45 46  2  0
 45 47  1  0
 47 48  1  1
 47 49  1  0
 49 50  1  0
 50 51  2  0
 50 52  1  0
 52 53  1  1
 52 54  1  0
 54 55  1  0
 55 56  2  0
 55 57  1  0
 57 58  1  1
 57 59  1  0
 59 60  1  0
 60 61  2  0
 60 62  1  0
 62 63  1  6
 63 64  1  0
 62 65  1  0
 65 66  1  0
 66 67  2  0
 66 68  1  0
 68 69  1  1
 69 70  1  0
 70 71  2  0
 70 72  1  0
 72 73  1  1
 72 74  1  0
 74 75  1  0
 75 76  1  0
 76 77  1  0
 77 78  1  0
 68 79  1  0
 79 80  1  6
 79 81  1  0
  5 82  1  0
 82 83  2  0
 82 84  1  0
 84 85  1  0
 85 86  1  6
 85 87  1  0
 87 88  2  0
 87 89  1  0
 89 90  1  0
 90 91  1  6
 90 92  1  0
 92 93  2  0
 92 94  1  0
 94 95  1  0
 95 96  1  6
 96 97  1  0
 97 98  1  0
 97 99  1  0
 95100  1  0
100101  2  0
100102  1  0
102103  1  0
103104  1  1
103105  1  0
105106  2  0
105107  1  0
M  CHG  4  26  -1  73   1  78   1 107  -1
M  END
>  <shape_align_shape_tanimoto>  (1) 
0.33515057418182043

>  <shape_align_color_tanimoto>  (1) 
0.028913247693680998

>  <metric>  (1) 
shape

>  <metric_score>  (1) 
0.335

>  <template_pid>  (1) 
4XEK

>  <template_shape_score>  (1) 
0.335

>  <template_color_score>  (1) 
0.029

>  <template_combo_score>  (1) 
0.182

$$$$
4XEK_color_pose
     RDKit          3D

107106  0  0  0  0  0  0  0  0999 V2000
  -19.4999   -0.7527  -11.2939 C   0  0  0  0  0  0  0  0  0  0  0  0
  -20.5293   -0.0462   -9.9171 S   0  0  0  0  0  0  0  0  0  0  0  0
  -19.5283    1.2246   -8.9650 C   0  0  0  0  0  0  0  0  0  0  0  0
  -18.3492    0.5647   -8.2554 C   0  0  0  0  0  0  0  0  0  0  0  0
  -17.4245    1.4878   -7.4590 C   0  0  2  0  0  0  0  0  0  0  0  0
  -16.3518    0.5408   -6.9024 N   0  0  0  0  0  0  0  0  0  0  0  0
  -14.9573    0.9379   -6.9014 C   0  0  0  0  0  0  0  0  0  0  0  0
  -14.6358    2.1111   -7.3749 O   0  0  0  0  0  0  0  0  0  0  0  0
  -13.8557   -0.0010   -6.3471 C   0  0  2  0  0  0  0  0  0  0  0  0
  -12.7029    0.0125   -7.3378 C   0  0  0  0  0  0  0  0  0  0  0  0
  -11.4886   -0.8483   -7.0112 C   0  0  0  0  0  0  0  0  0  0  0  0
  -11.7566   -2.3570   -6.8889 C   0  0  0  0  0  0  0  0  0  0  0  0
  -10.6990   -0.3097   -5.7790 C   0  0  0  0  0  0  0  0  0  0  0  0
  -14.3849   -1.3306   -5.9967 N   0  0  0  0  0  0  0  0  0  0  0  0
  -14.4052   -1.9124   -4.6745 C   0  0  0  0  0  0  0  0  0  0  0  0
  -13.9533   -1.2908   -3.6124 O   0  0  0  0  0  0  0  0  0  0  0  0
  -14.9596   -3.2910   -4.4907 C   0  0  2  0  0  0  0  0  0  0  0  0
  -13.9635   -4.2351   -3.7602 C   0  0  0  0  0  0  0  0  0  0  0  0
  -15.3638   -3.9234   -5.7728 N   0  0  0  0  0  0  0  0  0  0  0  0
  -16.6459   -4.5452   -6.0199 C   0  0  0  0  0  0  0  0  0  0  0  0
  -17.5497   -4.5998   -5.0888 O   0  0  0  0  0  0  0  0  0  0  0  0
  -16.8747   -5.1253   -7.4180 C   0  0  2  0  0  0  0  0  0  0  0  0
  -16.6760   -4.0488   -8.4955 C   0  0  0  0  0  0  0  0  0  0  0  0
  -16.9203   -4.6352   -9.8600 C   0  0  0  0  0  0  0  0  0  0  0  0
  -17.2656   -5.8319  -10.1304 O   0  0  0  0  0  0  0  0  0  0  0  0
  -16.7466   -3.7511  -10.9845 O   0  0  0  0  0  0  0  0  0  0  0  0
  -18.1724   -5.7867   -7.4020 N   0  0  0  0  0  0  0  0  0  0  0  0
  -18.4044   -7.2005   -7.6516 C   0  0  0  0  0  0  0  0  0  0  0  0
  -17.4274   -8.0288   -7.9347 O   0  0  0  0  0  0  0  0  0  0  0  0
  -19.7830   -7.8393   -7.6091 C   0  0  2  0  0  0  0  0  0  0  0  0
  -20.2105   -7.7881   -6.0971 C   0  0  0  0  0  0  0  0  0  0  0  0
  -21.5897   -8.3892   -5.8412 C   0  0  0  0  0  0  0  0  0  0  0  0
  -22.7474   -7.7173   -6.5733 C   0  0  0  0  0  0  0  0  0  0  0  0
  -21.8259   -8.3475   -4.3010 C   0  0  0  0  0  0  0  0  0  0  0  0
  -19.6820   -9.2762   -8.0418 N   0  0  0  0  0  0  0  0  0  0  0  0
  -20.6442   -9.8749   -8.9369 C   0  0  0  0  0  0  0  0  0  0  0  0
  -21.6215   -9.1062   -9.3452 O   0  0  0  0  0  0  0  0  0  0  0  0
  -20.6438  -11.2864   -9.4421 C   0  0  2  0  0  0  0  0  0  0  0  0
  -19.6322  -11.4538  -10.6419 C   0  0  0  0  0  0  0  0  0  0  0  0
  -18.2166  -11.0828  -10.2065 C   0  0  0  0  0  0  0  0  0  0  0  0
  -17.2076  -11.2560  -11.3415 C   0  0  0  0  0  0  0  0  0  0  0  0
  -15.8157  -10.8900  -11.0561 N   0  0  0  0  0  0  0  0  0  0  0  0
  -17.5689  -11.6997  -12.4826 O   0  0  0  0  0  0  0  0  0  0  0  0
  -21.9905  -11.5357  -10.0919 N   0  0  0  0  0  0  0  0  0  0  0  0
  -22.7442  -12.7321   -9.9175 C   0  0  0  0  0  0  0  0  0  0  0  0
  -22.3033  -13.7019   -9.1850 O   0  0  0  0  0  0  0  0  0  0  0  0
  -24.1265  -12.9578  -10.5752 C   0  0  2  0  0  0  0  0  0  0  0  0
  -24.1661  -14.2314  -11.4119 C   0  0  0  0  0  0  0  0  0  0  0  0
  -24.5497  -11.7469  -11.3095 N   0  0  0  0  0  0  0  0  0  0  0  0
  -25.3792  -10.7955  -10.6018 C   0  0  0  0  0  0  0  0  0  0  0  0
  -25.6895  -11.0805   -9.3588 O   0  0  0  0  0  0  0  0  0  0  0  0
  -25.9265   -9.5042  -11.1313 C   0  0  2  0  0  0  0  0  0  0  0  0
  -24.7740   -8.6012  -11.6684 C   0  0  0  0  0  0  0  0  0  0  0  0
  -26.5547   -8.7323  -10.0012 N   0  0  0  0  0  0  0  0  0  0  0  0
  -27.7543   -7.9551  -10.0824 C   0  0  0  0  0  0  0  0  0  0  0  0
  -28.3615   -7.9063  -11.2357 O   0  0  0  0  0  0  0  0  0  0  0  0
  -28.3719   -7.1806   -8.9471 C   0  0  2  0  0  0  0  0  0  0  0  0
  -28.0506   -5.6502   -9.2857 C   0  0  0  0  0  0  0  0  0  0  0  0
  -27.7097   -7.5108   -7.6771 N   0  0  0  0  0  0  0  0  0  0  0  0
  -28.3320   -7.2879   -6.3512 C   0  0  0  0  0  0  0  0  0  0  0  0
  -29.4996   -6.7626   -6.2273 O   0  0  0  0  0  0  0  0  0  0  0  0
  -27.4779   -7.7259   -5.1654 C   0  0  2  0  0  0  0  0  0  0  0  0
  -27.7550   -9.2699   -5.0431 C   0  0  0  0  0  0  0  0  0  0  0  0
  -26.9874   -9.7759   -3.9597 O   0  0  0  0  0  0  0  0  0  0  0  0
  -27.9022   -7.1481   -3.8676 N   0  0  0  0  0  0  0  0  0  0  0  0
  -26.8603   -6.5731   -3.0543 C   0  0  0  0  0  0  0  0  0  0  0  0
  -25.6432   -6.6437   -3.5645 O   0  0  0  0  0  0  0  0  0  0  0  0
  -27.0139   -5.9078   -1.7013 C   0  0  1  0  0  0  0  0  0  0  0  0
  -25.7152   -5.3378   -1.2724 N   0  0  0  0  0  0  0  0  0  0  0  0
  -24.8888   -4.4949   -2.1176 C   0  0  0  0  0  0  0  0  0  0  0  0
  -25.2230   -4.1467   -3.3190 O   0  0  0  0  0  0  0  0  0  0  0  0
  -23.5220   -3.9357   -1.6611 C   0  0  1  0  0  0  0  0  0  0  0  0
  -23.0186   -3.2394   -2.8992 N   0  0  0  0  0  0  0  0  0  0  0  0
  -23.6344   -2.8749   -0.5619 C   0  0  0  0  0  0  0  0  0  0  0  0
  -22.2517   -2.3333   -0.1591 C   0  0  0  0  0  0  0  0  0  0  0  0
  -21.3487   -3.4544    0.3636 C   0  0  0  0  0  0  0  0  0  0  0  0
  -21.9886   -4.1207    1.5883 C   0  0  0  0  0  0  0  0  0  0  0  0
  -21.0904   -5.2042    2.0930 N   0  0  0  0  0  0  0  0  0  0  0  0
  -28.2407   -5.0511   -1.5557 C   0  0  1  0  0  0  0  0  0  0  0  0
  -28.6699   -4.9326   -0.0752 C   0  0  0  0  0  0  0  0  0  0  0  0
  -28.2205   -3.8314   -2.2634 O   0  0  0  0  0  0  0  0  0  0  0  0
  -18.0364    2.0751   -6.1987 C   0  0  0  0  0  0  0  0  0  0  0  0
  -17.5576    1.5788   -5.0794 O   0  0  0  0  0  0  0  0  0  0  0  0
  -19.0510    3.0909   -6.1275 N   0  0  0  0  0  0  0  0  0  0  0  0
  -19.4988    3.5483   -4.8124 C   0  0  1  0  0  0  0  0  0  0  0  0
  -19.0776    5.0476   -4.5985 C   0  0  0  0  0  0  0  0  0  0  0  0
  -20.9351    3.3542   -4.4633 C   0  0  0  0  0  0  0  0  0  0  0  0
  -21.2537    3.6984   -3.2272 O   0  0  0  0  0  0  0  0  0  0  0  0
  -22.0268    2.8467   -5.2716 N   0  0  0  0  0  0  0  0  0  0  0  0
  -23.3455    2.7588   -4.6190 C   0  0  1  0  0  0  0  0  0  0  0  0
  -24.1729    4.0781   -4.9305 C   0  0  0  0  0  0  0  0  0  0  0  0
  -24.2504    1.6410   -5.0186 C   0  0  0  0  0  0  0  0  0  0  0  0
  -25.2511    1.4138   -4.1780 O   0  0  0  0  0  0  0  0  0  0  0  0
  -24.1990    0.7942   -6.1622 N   0  0  0  0  0  0  0  0  0  0  0  0
  -25.2504   -0.2652   -6.2979 C   0  0  1  0  0  0  0  0  0  0  0  0
  -26.2927    0.0910   -7.4024 C   0  0  0  0  0  0  0  0  0  0  0  0
  -27.0793    1.3691   -7.1667 C   0  0  0  0  0  0  0  0  0  0  0  0
  -28.0340    1.5222   -8.4211 C   0  0  0  0  0  0  0  0  0  0  0  0
  -27.9744    1.2797   -5.8900 C   0  0  0  0  0  0  0  0  0  0  0  0
  -24.5858   -1.5412   -6.7548 C   0  0  0  0  0  0  0  0  0  0  0  0
  -25.3144   -2.6264   -6.8245 O   0  0  0  0  0  0  0  0  0  0  0  0
  -23.2000   -1.6796   -7.1271 N   0  0  0  0  0  0  0  0  0  0  0  0
  -22.5815   -2.9636   -7.5735 C   0  0  1  0  0  0  0  0  0  0  0  0
  -22.4758   -2.9550   -9.1508 C   0  0  0  0  0  0  0  0  0  0  0  0
  -21.1926   -3.0861   -7.0201 C   0  0  0  0  0  0  0  0  0  0  0  0
  -20.9486   -3.4572   -5.8219 O   0  0  0  0  0  0  0  0  0  0  0  0
  -20.0961   -2.7635   -7.8928 O   0  0  0  0  0  0  0  0  0  0  0  0
  1  2  1  0
  2  3  1  0
  3  4  1  0
  5  4  1  1
  5  6  1  0
  6  7  1  0
  7  8  2  0
  7  9  1  0
  9 10  1  6
 10 11  1  0
 11 12  1  0
 11 13  1  0
  9 14  1  0
 14 15  1  0
 15 16  2  0
 15 17  1  0
 17 18  1  6
 17 19  1  0
 19 20  1  0
 20 21  2  0
 20 22  1  0
 22 23  1  6
 23 24  1  0
 24 25  2  0
 24 26  1  0
 22 27  1  0
 27 28  1  0
 28 29  2  0
 28 30  1  0
 30 31  1  1
 31 32  1  0
 32 33  1  0
 32 34  1  0
 30 35  1  0
 35 36  1  0
 36 37  2  0
 36 38  1  0
 38 39  1  6
 39 40  1  0
 40 41  1  0
 41 42  1  0
 41 43  2  0
 38 44  1  0
 44 45  1  0
 45 46  2  0
 45 47  1  0
 47 48  1  6
 47 49  1  0
 49 50  1  0
 50 51  2  0
 50 52  1  0
 52 53  1  1
 52 54  1  0
 54 55  1  0
 55 56  2  0
 55 57  1  0
 57 58  1  6
 57 59  1  0
 59 60  1  0
 60 61  2  0
 60 62  1  0
 62 63  1  1
 63 64  1  0
 62 65  1  0
 65 66  1  0
 66 67  2  0
 66 68  1  0
 68 69  1  6
 69 70  1  0
 70 71  2  0
 70 72  1  0
 72 73  1  6
 72 74  1  0
 74 75  1  0
 75 76  1  0
 76 77  1  0
 77 78  1  0
 68 79  1  0
 79 80  1  1
 79 81  1  0
  5 82  1  0
 82 83  2  0
 82 84  1  0
 84 85  1  0
 85 86  1  6
 85 87  1  0
 87 88  2  0
 87 89  1  0
 89 90  1  0
 90 91  1  6
 90 92  1  0
 92 93  2  0
 92 94  1  0
 94 95  1  0
 95 96  1  6
 96 97  1  0
 97 98  1  0
 97 99  1  0
 95100  1  0
100101  2  0
100102  1  0
102103  1  0
103104  1  6
103105  1  0
105106  2  0
105107  1  0
M  CHG  4  26  -1  73   1  78   1 107  -1
M  END
>  <shape_align_shape_tanimoto>  (2) 
0.28788679355420765

>  <shape_align_color_tanimoto>  (2) 
0.046130596592380349

>  <metric>  (2) 
color

>  <metric_score>  (2) 
0.046

>  <template_pid>  (2) 
4XEK

>  <template_shape_score>  (2) 
0.288

>  <template_color_score>  (2) 
0.046

>  <template_combo_score>  (2) 
0.167

$$$$
4XEK_combo_pose
     RDKit          3D

107106  0  0  0  0  0  0  0  0999 V2000
  -27.9564   -9.5527   -0.0844 C   0  0  0  0  0  0  0  0  0  0  0  0
  -27.1076  -10.1284   -1.5919 S   0  0  0  0  0  0  0  0  0  0  0  0
  -26.9566   -8.6648   -2.7335 C   0  0  0  0  0  0  0  0  0  0  0  0
  -26.0344   -7.6744   -2.0762 C   0  0  0  0  0  0  0  0  0  0  0  0
  -25.7658   -6.4583   -2.9067 C   0  0  2  0  0  0  0  0  0  0  0  0
  -24.8588   -5.5191   -2.2276 N   0  0  0  0  0  0  0  0  0  0  0  0
  -23.7334   -4.8793   -2.7771 C   0  0  0  0  0  0  0  0  0  0  0  0
  -23.3457   -5.0134   -4.0028 O   0  0  0  0  0  0  0  0  0  0  0  0
  -22.9354   -3.9735   -1.8281 C   0  0  2  0  0  0  0  0  0  0  0  0
  -23.7996   -3.0973   -0.9689 C   0  0  0  0  0  0  0  0  0  0  0  0
  -22.8560   -2.2435   -0.0877 C   0  0  0  0  0  0  0  0  0  0  0  0
  -23.7093   -1.3274    0.8148 C   0  0  0  0  0  0  0  0  0  0  0  0
  -21.9325   -3.1219    0.7607 C   0  0  0  0  0  0  0  0  0  0  0  0
  -21.9100   -3.2604   -2.5400 N   0  0  0  0  0  0  0  0  0  0  0  0
  -20.6237   -3.7906   -2.8978 C   0  0  0  0  0  0  0  0  0  0  0  0
  -20.3032   -4.9950   -2.5879 O   0  0  0  0  0  0  0  0  0  0  0  0
  -19.6973   -2.9018   -3.6387 C   0  0  2  0  0  0  0  0  0  0  0  0
  -20.4403   -1.8552   -4.4698 C   0  0  0  0  0  0  0  0  0  0  0  0
  -18.6462   -3.5994   -4.3674 N   0  0  0  0  0  0  0  0  0  0  0  0
  -17.2918   -3.2170   -4.4820 C   0  0  0  0  0  0  0  0  0  0  0  0
  -16.7532   -2.2111   -3.9645 O   0  0  0  0  0  0  0  0  0  0  0  0
  -16.4089   -4.1136   -5.3295 C   0  0  2  0  0  0  0  0  0  0  0  0
  -16.0844   -5.4302   -4.6941 C   0  0  0  0  0  0  0  0  0  0  0  0
  -15.1931   -6.1971   -5.6566 C   0  0  0  0  0  0  0  0  0  0  0  0
  -14.8946   -5.6288   -6.7487 O   0  0  0  0  0  0  0  0  0  0  0  0
  -14.7461   -7.4777   -5.3030 O   0  0  0  0  0  0  0  0  0  0  0  0
  -15.1837   -3.3483   -5.6063 N   0  0  0  0  0  0  0  0  0  0  0  0
  -15.1492   -2.6630   -6.8485 C   0  0  0  0  0  0  0  0  0  0  0  0
  -16.1871   -2.7603   -7.6243 O   0  0  0  0  0  0  0  0  0  0  0  0
  -14.0516   -1.8246   -7.3891 C   0  0  2  0  0  0  0  0  0  0  0  0
  -13.4686   -0.8105   -6.4480 C   0  0  0  0  0  0  0  0  0  0  0  0
  -12.3373   -0.0007   -7.0574 C   0  0  0  0  0  0  0  0  0  0  0  0
  -11.1728   -0.9040   -7.4877 C   0  0  0  0  0  0  0  0  0  0  0  0
  -11.8141    0.9374   -5.9648 C   0  0  0  0  0  0  0  0  0  0  0  0
  -14.6175   -1.1988   -8.6121 N   0  0  0  0  0  0  0  0  0  0  0  0
  -15.1832    0.0898   -8.6828 C   0  0  0  0  0  0  0  0  0  0  0  0
  -15.2928    0.9146   -7.6981 O   0  0  0  0  0  0  0  0  0  0  0  0
  -15.7633    0.6862   -9.9812 C   0  0  2  0  0  0  0  0  0  0  0  0
  -14.7486    0.8069  -11.0703 C   0  0  0  0  0  0  0  0  0  0  0  0
  -15.3806    1.4198  -12.3286 C   0  0  0  0  0  0  0  0  0  0  0  0
  -14.3356    1.5212  -13.3772 C   0  0  0  0  0  0  0  0  0  0  0  0
  -14.6454    2.0275  -14.6819 N   0  0  0  0  0  0  0  0  0  0  0  0
  -13.1269    1.1597  -13.1461 O   0  0  0  0  0  0  0  0  0  0  0  0
  -16.3364    2.0075   -9.5816 N   0  0  0  0  0  0  0  0  0  0  0  0
  -17.7030    2.0129   -9.2199 C   0  0  0  0  0  0  0  0  0  0  0  0
  -18.3733    0.9110   -9.2658 O   0  0  0  0  0  0  0  0  0  0  0  0
  -18.4429    3.2167   -8.7720 C   0  0  2  0  0  0  0  0  0  0  0  0
  -17.7104    3.8487   -7.5488 C   0  0  0  0  0  0  0  0  0  0  0  0
  -19.7954    2.8021   -8.3374 N   0  0  0  0  0  0  0  0  0  0  0  0
  -20.9627    3.5778   -8.4403 C   0  0  0  0  0  0  0  0  0  0  0  0
  -20.8667    4.7443   -8.9486 O   0  0  0  0  0  0  0  0  0  0  0  0
  -22.3262    3.1528   -7.9921 C   0  0  2  0  0  0  0  0  0  0  0  0
  -22.7051    4.0184   -6.7395 C   0  0  0  0  0  0  0  0  0  0  0  0
  -22.3460    1.7464   -7.6077 N   0  0  0  0  0  0  0  0  0  0  0  0
  -23.4948    0.8929   -7.6948 C   0  0  0  0  0  0  0  0  0  0  0  0
  -24.5732    1.4401   -8.1121 O   0  0  0  0  0  0  0  0  0  0  0  0
  -23.4648   -0.5532   -7.3230 C   0  0  2  0  0  0  0  0  0  0  0  0
  -23.8683   -0.5840   -5.8107 C   0  0  0  0  0  0  0  0  0  0  0  0
  -22.1056   -1.0792   -7.3552 N   0  0  0  0  0  0  0  0  0  0  0  0
  -21.9636   -2.4592   -7.7770 C   0  0  0  0  0  0  0  0  0  0  0  0
  -23.0527   -3.0938   -8.0292 O   0  0  0  0  0  0  0  0  0  0  0  0
  -20.6791   -3.1442   -7.9316 C   0  0  2  0  0  0  0  0  0  0  0  0
  -19.9189   -2.5204   -9.1633 C   0  0  0  0  0  0  0  0  0  0  0  0
  -20.5316   -2.7789  -10.3636 O   0  0  0  0  0  0  0  0  0  0  0  0
  -20.7820   -4.5796   -8.1132 N   0  0  0  0  0  0  0  0  0  0  0  0
  -19.7739   -5.4038   -8.7261 C   0  0  0  0  0  0  0  0  0  0  0  0
  -18.7048   -4.9770   -9.2070 O   0  0  0  0  0  0  0  0  0  0  0  0
  -20.0280   -6.8809   -8.8001 C   0  0  1  0  0  0  0  0  0  0  0  0
  -20.6845   -7.3335   -7.5750 N   0  0  0  0  0  0  0  0  0  0  0  0
  -20.1901   -8.5195   -6.9877 C   0  0  0  0  0  0  0  0  0  0  0  0
  -19.2195   -9.1213   -7.5961 O   0  0  0  0  0  0  0  0  0  0  0  0
  -20.6295   -9.2063   -5.7234 C   0  0  1  0  0  0  0  0  0  0  0  0
  -21.1973   -8.1971   -4.8263 N   0  0  0  0  0  0  0  0  0  0  0  0
  -21.6184  -10.3010   -6.0240 C   0  0  0  0  0  0  0  0  0  0  0  0
  -22.0505  -11.1266   -4.8668 C   0  0  0  0  0  0  0  0  0  0  0  0
  -22.7271  -10.5071   -3.6763 C   0  0  0  0  0  0  0  0  0  0  0  0
  -23.0646  -11.6884   -2.7047 C   0  0  0  0  0  0  0  0  0  0  0  0
  -23.7096  -11.2276   -1.4916 N   0  0  0  0  0  0  0  0  0  0  0  0
  -20.8728   -7.2063  -10.0362 C   0  0  1  0  0  0  0  0  0  0  0  0
  -20.0799   -6.7528  -11.2582 C   0  0  0  0  0  0  0  0  0  0  0  0
  -21.0432   -8.5828  -10.1031 O   0  0  0  0  0  0  0  0  0  0  0  0
  -26.8796   -5.8215   -3.6277 C   0  0  0  0  0  0  0  0  0  0  0  0
  -27.9507   -6.3960   -4.0114 O   0  0  0  0  0  0  0  0  0  0  0  0
  -26.7704   -4.4286   -3.9495 N   0  0  0  0  0  0  0  0  0  0  0  0
  -27.7607   -3.6459   -4.6489 C   0  0  1  0  0  0  0  0  0  0  0  0
  -27.5163   -2.1810   -4.5181 C   0  0  0  0  0  0  0  0  0  0  0  0
  -27.8589   -4.0678   -6.0918 C   0  0  0  0  0  0  0  0  0  0  0  0
  -27.3348   -5.2092   -6.3573 O   0  0  0  0  0  0  0  0  0  0  0  0
  -28.4489   -3.3597   -7.1423 N   0  0  0  0  0  0  0  0  0  0  0  0
  -28.5698   -3.7993   -8.5252 C   0  0  1  0  0  0  0  0  0  0  0  0
  -29.5235   -2.9948   -9.3549 C   0  0  0  0  0  0  0  0  0  0  0  0
  -27.2095   -3.9946   -9.1785 C   0  0  0  0  0  0  0  0  0  0  0  0
  -26.1382   -3.7879   -8.5061 O   0  0  0  0  0  0  0  0  0  0  0  0
  -27.2109   -4.4196  -10.5444 N   0  0  0  0  0  0  0  0  0  0  0  0
  -25.9050   -4.6777  -11.2674 C   0  0  1  0  0  0  0  0  0  0  0  0
  -25.9581   -6.0342  -11.8522 C   0  0  0  0  0  0  0  0  0  0  0  0
  -24.8473   -6.6030  -12.6422 C   0  0  0  0  0  0  0  0  0  0  0  0
  -24.4676   -5.9365  -13.9405 C   0  0  0  0  0  0  0  0  0  0  0  0
  -25.1988   -8.0860  -12.9779 C   0  0  0  0  0  0  0  0  0  0  0  0
  -25.5889   -3.4880  -12.0748 C   0  0  0  0  0  0  0  0  0  0  0  0
  -26.5687   -2.6723  -12.3026 O   0  0  0  0  0  0  0  0  0  0  0  0
  -24.3346   -3.1151  -12.6276 N   0  0  0  0  0  0  0  0  0  0  0  0
  -24.2287   -1.8894  -13.3770 C   0  0  1  0  0  0  0  0  0  0  0  0
  -23.1628   -1.0387  -12.6491 C   0  0  0  0  0  0  0  0  0  0  0  0
  -23.7143   -2.1412  -14.7460 C   0  0  0  0  0  0  0  0  0  0  0  0
  -23.2322   -3.2100  -15.1871 O   0  0  0  0  0  0  0  0  0  0  0  0
  -23.7716   -1.0572  -15.6544 O   0  0  0  0  0  0  0  0  0  0  0  0
  1  2  1  0
  2  3  1  0
  3  4  1  0
  5  4  1  1
  5  6  1  0
  6  7  1  0
  7  8  2  0
  7  9  1  0
  9 10  1  6
 10 11  1  0
 11 12  1  0
 11 13  1  0
  9 14  1  0
 14 15  1  0
 15 16  2  0
 15 17  1  0
 17 18  1  6
 17 19  1  0
 19 20  1  0
 20 21  2  0
 20 22  1  0
 22 23  1  1
 23 24  1  0
 24 25  2  0
 24 26  1  0
 22 27  1  0
 27 28  1  0
 28 29  2  0
 28 30  1  0
 30 31  1  1
 31 32  1  0
 32 33  1  0
 32 34  1  0
 30 35  1  0
 35 36  1  0
 36 37  2  0
 36 38  1  0
 38 39  1  6
 39 40  1  0
 40 41  1  0
 41 42  1  0
 41 43  2  0
 38 44  1  0
 44 45  1  0
 45 46  2  0
 45 47  1  0
 47 48  1  1
 47 49  1  0
 49 50  1  0
 50 51  2  0
 50 52  1  0
 52 53  1  1
 52 54  1  0
 54 55  1  0
 55 56  2  0
 55 57  1  0
 57 58  1  1
 57 59  1  0
 59 60  1  0
 60 61  2  0
 60 62  1  0
 62 63  1  6
 63 64  1  0
 62 65  1  0
 65 66  1  0
 66 67  2  0
 66 68  1  0
 68 69  1  1
 69 70  1  0
 70 71  2  0
 70 72  1  0
 72 73  1  1
 72 74  1  0
 74 75  1  0
 75 76  1  0
 76 77  1  0
 77 78  1  0
 68 79  1  0
 79 80  1  6
 79 81  1  0
  5 82  1  0
 82 83  2  0
 82 84  1  0
 84 85  1  0
 85 86  1  6
 85 87  1  0
 87 88  2  0
 87 89  1  0
 89 90  1  0
 90 91  1  6
 90 92  1  0
 92 93  2  0
 92 94  1  0
 94 95  1  0
 95 96  1  6
 96 97  1  0
 97 98  1  0
 97 99  1  0
 95100  1  0
100101  2  0
100102  1  0
102103  1  0
103104  1  1
103105  1  0
105106  2  0
105107  1  0
M  CHG  4  26  -1  73   1  78   1 107  -1
M  END
>  <shape_align_shape_tanimoto>  (3) 
0.33515057418182043

>  <shape_align_color_tanimoto>  (3) 
0.028913247693680998

>  <metric>  (3) 
combo

>  <metric_score>  (3) 
0.182

>  <template_pid>  (3) 
4XEK

>  <template_shape_score>  (3) 
0.335

>  <template_color_score>  (3) 
0.029

>  <template_combo_score>  (3) 
0.182

$$$$
