2YIV_shape_pose
     RDKit          3D

  6  5  0  0  0  0  0  0  0  0999 V2000
  -11.4276   52.1811   49.1414 C   0  0  0  0  0  0  0  0  0  0  0  0
  -10.9773   52.6784   50.2300 N   0  0  0  0  0  0  0  0  0  0  0  0
  -11.7926   52.8594   51.4069 C   0  0  0  0  0  0  0  0  0  0  0  0
  -12.0592   54.3525   51.6059 C   0  0  0  0  0  0  0  0  0  0  0  0
  -12.9039   54.5032   52.8304 C   0  0  0  0  0  0  0  0  0  0  0  0
  -14.2004   53.7375   52.5938 C   0  0  0  0  0  0  0  0  0  0  0  0
  1  2  2  0
  2  3  1  0
  3  4  1  0
  4  5  1  0
  5  6  1  0
M  END
>  <shape_align_shape_tanimoto>  (1) 
0.49923468980168045

>  <shape_align_color_tanimoto>  (1) 
0.013234801255216332

>  <metric>  (1) 
shape

>  <metric_score>  (1) 
0.499

>  <template_pid>  (1) 
2YIV

>  <template_shape_score>  (1) 
0.499

>  <template_color_score>  (1) 
0.013

>  <template_combo_score>  (1) 
0.256

$$$$
2YIV_color_pose
     RDKit          3D

  6  5  0  0  0  0  0  0  0  0999 V2000
  -11.5217   52.4327   49.9043 C   0  0  0  0  0  0  0  0  0  0  0  0
  -11.1223   52.8963   51.0059 N   0  0  0  0  0  0  0  0  0  0  0  0
  -11.3167   54.2444   51.4421 C   0  0  0  0  0  0  0  0  0  0  0  0
  -12.4210   54.2627   52.4935 C   0  0  0  0  0  0  0  0  0  0  0  0
  -13.6649   53.7188   51.8277 C   0  0  0  0  0  0  0  0  0  0  0  0
  -14.8459   53.6839   52.7734 C   0  0  0  0  0  0  0  0  0  0  0  0
  1  2  2  0
  2  3  1  0
  3  4  1  0
  4  5  1  0
  5  6  1  0
M  END
>  <shape_align_shape_tanimoto>  (2) 
0.46806871599664207

>  <shape_align_color_tanimoto>  (2) 
0.045708006896169232

>  <metric>  (2) 
color

>  <metric_score>  (2) 
0.046

>  <template_pid>  (2) 
2YIV

>  <template_shape_score>  (2) 
0.468

>  <template_color_score>  (2) 
0.046

>  <template_combo_score>  (2) 
0.257

$$$$
2YIV_combo_pose
     RDKit          3D

  6  5  0  0  0  0  0  0  0  0999 V2000
  -11.4978   52.4949   49.9185 C   0  0  0  0  0  0  0  0  0  0  0  0
  -11.5195   52.9934   51.0923 N   0  0  0  0  0  0  0  0  0  0  0  0
  -11.9305   54.3036   51.4241 C   0  0  0  0  0  0  0  0  0  0  0  0
  -12.6948   54.3733   52.7278 C   0  0  0  0  0  0  0  0  0  0  0  0
  -13.9507   53.5276   52.6823 C   0  0  0  0  0  0  0  0  0  0  0  0
  -14.8388   54.0258   51.5783 C   0  0  0  0  0  0  0  0  0  0  0  0
  1  2  2  0
  2  3  1  0
  3  4  1  0
  4  5  1  0
  5  6  1  0
M  END
>  <shape_align_shape_tanimoto>  (3) 
0.48978022573748442

>  <shape_align_color_tanimoto>  (3) 
0.031805319331924368

>  <metric>  (3) 
combo

>  <metric_score>  (3) 
0.261

>  <template_pid>  (3) 
2YIV

>  <template_shape_score>  (3) 
0.490

>  <template_color_score>  (3) 
0.032

>  <template_combo_score>  (3) 
0.261

$$$$
