3UII_shape_pose
     RDKit          3D

 33 32  0  0  0  0  0  0  0  0999 V2000
   -1.4664   10.7489  -12.1932 C   0  0  0  0  0  0  0  0  0  0  0  0
   -1.7858   11.3854  -10.8453 C   0  0  2  0  0  0  0  0  0  0  0  0
   -1.5126   12.7981  -11.0136 N   0  0  0  0  0  0  0  0  0  0  0  0
   -0.9458   10.8190   -9.7613 C   0  0  0  0  0  0  0  0  0  0  0  0
   -0.1253   11.5820   -9.1762 O   0  0  0  0  0  0  0  0  0  0  0  0
   -1.0750    9.4265   -9.3939 N   0  0  0  0  0  0  0  0  0  0  0  0
   -0.3004    8.8134   -8.3608 C   0  0  1  0  0  0  0  0  0  0  0  0
    1.1685    9.0161   -8.3897 C   0  0  0  0  0  0  0  0  0  0  0  0
    1.8549    8.4467   -9.5946 C   0  0  0  0  0  0  0  0  0  0  0  0
    1.4328    8.9551  -10.9175 C   0  0  0  0  0  0  0  0  0  0  0  0
    2.1484    8.3662  -12.0502 N   0  0  0  0  0  0  0  0  0  0  0  0
    2.0189    7.0139  -12.4341 C   0  0  0  0  0  0  0  0  0  0  0  0
    2.8092    6.6074  -13.5745 N   0  0  0  0  0  0  0  0  0  0  0  0
    1.2711    6.1552  -11.8533 N   0  0  0  0  0  0  0  0  0  0  0  0
   -0.9401    9.0466   -7.0420 C   0  0  0  0  0  0  0  0  0  0  0  0
   -2.0103    9.7462   -7.0129 O   0  0  0  0  0  0  0  0  0  0  0  0
   -0.4050    8.5240   -5.8496 N   0  0  0  0  0  0  0  0  0  0  0  0
   -0.9407    8.6886   -4.5368 C   0  0  2  0  0  0  0  0  0  0  0  0
   -0.0524    9.4401   -3.6173 C   0  0  0  0  0  0  0  0  0  0  0  0
   -0.4416    9.5857   -2.4328 O   0  0  0  0  0  0  0  0  0  0  0  0
    1.2179    9.9874   -4.0730 N   0  0  0  0  0  0  0  0  0  0  0  0
    2.0219   10.6994   -3.1404 C   0  0  1  0  0  0  0  0  0  0  0  0
    3.3333   10.1895   -2.7271 C   0  0  0  0  0  0  0  0  0  0  0  0
    4.4439    9.9872   -3.6554 C   0  0  0  0  0  0  0  0  0  0  0  0
    4.2414    8.9944   -4.7529 C   0  0  0  0  0  0  0  0  0  0  0  0
    5.5824    8.9596   -5.5252 C   0  0  0  0  0  0  0  0  0  0  0  0
    5.5032    8.0213   -6.6204 N   0  0  0  0  0  0  0  0  0  0  0  0
    2.2188   12.1309   -3.5672 C   0  0  0  0  0  0  0  0  0  0  0  0
    2.1087   12.4082   -4.7773 O   0  0  0  0  0  0  0  0  0  0  0  0
    2.5117   13.0608   -2.5757 O   0  0  0  0  0  0  0  0  0  0  0  0
   -1.4075    7.3842   -3.9643 C   0  0  1  0  0  0  0  0  0  0  0  0
   -2.5793    6.8102   -4.7272 C   0  0  0  0  0  0  0  0  0  0  0  0
   -0.3928    6.4432   -3.8658 O   0  0  0  0  0  0  0  0  0  0  0  0
  2  1  1  6
  2  3  1  0
  2  4  1  0
  4  5  2  0
  4  6  1  0
  6  7  1  0
  7  8  1  1
  8  9  1  0
  9 10  1  0
 10 11  1  0
 11 12  1  0
 12 13  1  0
 12 14  2  0
  7 15  1  0
 15 16  2  0
 15 17  1  0
 18 17  1  6
 18 19  1  0
 19 20  2  0
 19 21  1  0
 21 22  1  0
 22 23  1  6
 23 24  1  0
 24 25  1  0
 25 26  1  0
 26 27  1  0
 22 28  1  0
 28 29  2  0
 28 30  1  0
 18 31  1  0
 31 32  1  6
 31 33  1  0
M  CHG  4   3   1  14   1  27   1  30  -1
M  END
>  <shape_align_shape_tanimoto>  (1) 
0.58163832625042844

>  <shape_align_color_tanimoto>  (1) 
0.017137595648463927

>  <metric>  (1) 
shape

>  <metric_score>  (1) 
0.582

>  <template_pid>  (1) 
3UII

>  <template_shape_score>  (1) 
0.582

>  <template_color_score>  (1) 
0.017

>  <template_combo_score>  (1) 
0.299

$$$$
3UII_color_pose
     RDKit          3D

 33 32  0  0  0  0  0  0  0  0999 V2000
    0.4362   12.5927  -10.6976 C   0  0  0  0  0  0  0  0  0  0  0  0
   -0.7670   11.6788  -10.7989 C   0  0  2  0  0  0  0  0  0  0  0  0
   -1.8821   12.4330  -10.2136 N   0  0  0  0  0  0  0  0  0  0  0  0
   -0.5589   10.4993   -9.8732 C   0  0  0  0  0  0  0  0  0  0  0  0
   -1.3419   10.4690   -8.8955 O   0  0  0  0  0  0  0  0  0  0  0  0
    0.4537    9.5828  -10.1833 N   0  0  0  0  0  0  0  0  0  0  0  0
    0.8906    8.4179   -9.5098 C   0  0  1  0  0  0  0  0  0  0  0  0
    0.3801    8.1904   -8.1002 C   0  0  0  0  0  0  0  0  0  0  0  0
    0.8371    9.2201   -7.1033 C   0  0  0  0  0  0  0  0  0  0  0  0
    0.2243    8.9201   -5.7482 C   0  0  0  0  0  0  0  0  0  0  0  0
    0.6283    9.8751   -4.7519 N   0  0  0  0  0  0  0  0  0  0  0  0
    0.1219    9.7066   -3.4330 C   0  0  0  0  0  0  0  0  0  0  0  0
    0.5259   10.6536   -2.4480 N   0  0  0  0  0  0  0  0  0  0  0  0
   -0.6752    8.7282   -3.1390 N   0  0  0  0  0  0  0  0  0  0  0  0
    1.0628    7.2003  -10.3043 C   0  0  0  0  0  0  0  0  0  0  0  0
    1.4495    6.1381   -9.7247 O   0  0  0  0  0  0  0  0  0  0  0  0
    0.8162    7.1478  -11.7081 N   0  0  0  0  0  0  0  0  0  0  0  0
    1.0023    5.9176  -12.4533 C   0  0  2  0  0  0  0  0  0  0  0  0
    2.0951    6.1570  -13.4631 C   0  0  0  0  0  0  0  0  0  0  0  0
    2.4431    5.2508  -14.2319 O   0  0  0  0  0  0  0  0  0  0  0  0
    2.7473    7.4407  -13.5456 N   0  0  0  0  0  0  0  0  0  0  0  0
    3.7841    7.6416  -14.5127 C   0  0  1  0  0  0  0  0  0  0  0  0
    3.6458    8.8474  -15.3805 C   0  0  0  0  0  0  0  0  0  0  0  0
    2.4361    8.9428  -16.2347 C   0  0  0  0  0  0  0  0  0  0  0  0
    1.1194    9.0129  -15.5522 C   0  0  0  0  0  0  0  0  0  0  0  0
    0.9816   10.2113  -14.6360 C   0  0  0  0  0  0  0  0  0  0  0  0
    1.1239   11.4544  -15.3268 N   0  0  0  0  0  0  0  0  0  0  0  0
    5.1367    7.6492  -13.8246 C   0  0  0  0  0  0  0  0  0  0  0  0
    5.5630    6.5456  -13.3457 O   0  0  0  0  0  0  0  0  0  0  0  0
    5.8850    8.8041  -13.7168 O   0  0  0  0  0  0  0  0  0  0  0  0
   -0.2912    5.5548  -13.1128 C   0  0  1  0  0  0  0  0  0  0  0  0
   -0.2024    4.2446  -13.8720 C   0  0  0  0  0  0  0  0  0  0  0  0
   -1.2447    5.3836  -12.1103 O   0  0  0  0  0  0  0  0  0  0  0  0
  2  1  1  1
  2  3  1  0
  2  4  1  0
  4  5  2  0
  4  6  1  0
  6  7  1  0
  7  8  1  1
  8  9  1  0
  9 10  1  0
 10 11  1  0
 11 12  1  0
 12 13  1  0
 12 14  2  0
  7 15  1  0
 15 16  2  0
 15 17  1  0
 18 17  1  6
 18 19  1  0
 19 20  2  0
 19 21  1  0
 21 22  1  0
 22 23  1  1
 23 24  1  0
 24 25  1  0
 25 26  1  0
 26 27  1  0
 22 28  1  0
 28 29  2  0
 28 30  1  0
 18 31  1  0
 31 32  1  1
 31 33  1  0
M  CHG  4   3   1  14   1  27   1  30  -1
M  END
>  <shape_align_shape_tanimoto>  (2) 
0.43154604765571614

>  <shape_align_color_tanimoto>  (2) 
0.081142140217446021

>  <metric>  (2) 
color

>  <metric_score>  (2) 
0.081

>  <template_pid>  (2) 
3UII

>  <template_shape_score>  (2) 
0.432

>  <template_color_score>  (2) 
0.081

>  <template_combo_score>  (2) 
0.256

$$$$
3UII_combo_pose
     RDKit          3D

 33 32  0  0  0  0  0  0  0  0999 V2000
   -1.4664   10.7489  -12.1932 C   0  0  0  0  0  0  0  0  0  0  0  0
   -1.7858   11.3854  -10.8453 C   0  0  2  0  0  0  0  0  0  0  0  0
   -1.5126   12.7981  -11.0136 N   0  0  0  0  0  0  0  0  0  0  0  0
   -0.9458   10.8190   -9.7613 C   0  0  0  0  0  0  0  0  0  0  0  0
   -0.1253   11.5820   -9.1762 O   0  0  0  0  0  0  0  0  0  0  0  0
   -1.0750    9.4265   -9.3939 N   0  0  0  0  0  0  0  0  0  0  0  0
   -0.3004    8.8134   -8.3608 C   0  0  1  0  0  0  0  0  0  0  0  0
    1.1685    9.0161   -8.3897 C   0  0  0  0  0  0  0  0  0  0  0  0
    1.8549    8.4467   -9.5946 C   0  0  0  0  0  0  0  0  0  0  0  0
    1.4328    8.9551  -10.9175 C   0  0  0  0  0  0  0  0  0  0  0  0
    2.1484    8.3662  -12.0502 N   0  0  0  0  0  0  0  0  0  0  0  0
    2.0189    7.0139  -12.4341 C   0  0  0  0  0  0  0  0  0  0  0  0
    2.8092    6.6074  -13.5745 N   0  0  0  0  0  0  0  0  0  0  0  0
    1.2711    6.1552  -11.8533 N   0  0  0  0  0  0  0  0  0  0  0  0
   -0.9401    9.0466   -7.0420 C   0  0  0  0  0  0  0  0  0  0  0  0
   -2.0103    9.7462   -7.0129 O   0  0  0  0  0  0  0  0  0  0  0  0
   -0.4050    8.5240   -5.8496 N   0  0  0  0  0  0  0  0  0  0  0  0
   -0.9407    8.6886   -4.5368 C   0  0  2  0  0  0  0  0  0  0  0  0
   -0.0524    9.4401   -3.6173 C   0  0  0  0  0  0  0  0  0  0  0  0
   -0.4416    9.5857   -2.4328 O   0  0  0  0  0  0  0  0  0  0  0  0
    1.2179    9.9874   -4.0730 N   0  0  0  0  0  0  0  0  0  0  0  0
    2.0219   10.6994   -3.1404 C   0  0  1  0  0  0  0  0  0  0  0  0
    3.3333   10.1895   -2.7271 C   0  0  0  0  0  0  0  0  0  0  0  0
    4.4439    9.9872   -3.6554 C   0  0  0  0  0  0  0  0  0  0  0  0
    4.2414    8.9944   -4.7529 C   0  0  0  0  0  0  0  0  0  0  0  0
    5.5824    8.9596   -5.5252 C   0  0  0  0  0  0  0  0  0  0  0  0
    5.5032    8.0213   -6.6204 N   0  0  0  0  0  0  0  0  0  0  0  0
    2.2188   12.1309   -3.5672 C   0  0  0  0  0  0  0  0  0  0  0  0
    2.1087   12.4082   -4.7773 O   0  0  0  0  0  0  0  0  0  0  0  0
    2.5117   13.0608   -2.5757 O   0  0  0  0  0  0  0  0  0  0  0  0
   -1.4075    7.3842   -3.9643 C   0  0  1  0  0  0  0  0  0  0  0  0
   -2.5793    6.8102   -4.7272 C   0  0  0  0  0  0  0  0  0  0  0  0
   -0.3928    6.4432   -3.8658 O   0  0  0  0  0  0  0  0  0  0  0  0
  2  1  1  6
  2  3  1  0
  2  4  1  0
  4  5  2  0
  4  6  1  0
  6  7  1  0
  7  8  1  1
  8  9  1  0
  9 10  1  0
 10 11  1  0
 11 12  1  0
 12 13  1  0
 12 14  2  0
  7 15  1  0
 15 16  2  0
 15 17  1  0
 18 17  1  6
 18 19  1  0
 19 20  2  0
 19 21  1  0
 21 22  1  0
 22 23  1  6
 23 24  1  0
 24 25  1  0
 25 26  1  0
 26 27  1  0
 22 28  1  0
 28 29  2  0
 28 30  1  0
 18 31  1  0
 31 32  1  6
 31 33  1  0
M  CHG  4   3   1  14   1  27   1  30  -1
M  END
>  <shape_align_shape_tanimoto>  (3) 
0.58163832625042844

>  <shape_align_color_tanimoto>  (3) 
0.017137595648463927

>  <metric>  (3) 
combo

>  <metric_score>  (3) 
0.299

>  <template_pid>  (3) 
3UII

>  <template_shape_score>  (3) 
0.582

>  <template_color_score>  (3) 
0.017

>  <template_combo_score>  (3) 
0.299

$$$$
