4HV7_shape_pose
     RDKit          3D

 23 24  0  0  0  0  0  0  0  0999 V2000
   -7.4011  -15.7747   20.1161 N   0  0  0  0  0  0  0  0  0  0  0  0
   -7.7204  -14.7921   20.8636 C   0  0  0  0  0  0  0  0  0  0  0  0
   -8.9126  -14.7784   21.4883 N   0  0  0  0  0  0  0  0  0  0  0  0
   -9.3118  -13.7713   22.2916 C   0  0  0  0  0  0  0  0  0  0  0  0
  -10.4063  -13.7319   22.8809 O   0  0  0  0  0  0  0  0  0  0  0  0
   -8.4192  -12.7173   22.4549 C   0  0  0  0  0  0  0  0  0  0  0  0
   -8.7083  -11.6600   23.2311 N   0  0  0  0  0  0  0  0  0  0  0  0
   -7.8503  -10.6244   23.4013 C   0  0  0  0  0  0  0  0  0  0  0  0
   -6.6309  -10.6525   22.7541 C   0  0  0  0  0  0  0  0  0  0  0  0
   -5.6619   -9.5477   22.9079 C   0  0  0  0  0  0  0  0  0  0  0  0
   -5.9873   -8.5782   23.6508 O   0  0  0  0  0  0  0  0  0  0  0  0
   -4.4399   -9.6339   22.2250 N   0  0  0  0  0  0  0  0  0  0  0  0
   -3.4549   -8.5729   22.3445 C   0  0  0  0  0  0  0  0  0  0  0  0
   -4.1197   -7.3296   21.8399 C   0  0  0  0  0  0  0  0  0  0  0  0
   -5.3240   -7.3486   21.4171 O   0  0  0  0  0  0  0  0  0  0  0  0
   -3.3645   -6.1043   21.8425 N   0  0  0  0  0  0  0  0  0  0  0  0
   -4.0514   -4.9094   21.3405 C   0  0  0  0  0  0  0  0  0  0  0  0
   -4.4640   -5.1333   19.9169 C   0  0  0  0  0  0  0  0  0  0  0  0
   -4.2278   -6.2029   19.3044 O   0  0  0  0  0  0  0  0  0  0  0  0
   -5.1300   -4.0890   19.2938 O   0  0  0  0  0  0  0  0  0  0  0  0
   -6.3475  -11.7256   21.9715 N   0  0  0  0  0  0  0  0  0  0  0  0
   -7.1993  -12.7560   21.8011 C   0  0  0  0  0  0  0  0  0  0  0  0
   -6.8270  -13.7738   21.0053 N   0  0  0  0  0  0  0  0  0  0  0  0
  1  2  2  0
  2  3  1  0
  3  4  1  0
  4  5  2  0
  4  6  1  0
  6  7  2  0
  7  8  1  0
  8  9  2  0
  9 10  1  0
 10 11  2  0
 10 12  1  0
 12 13  1  0
 13 14  1  0
 14 15  2  0
 14 16  1  0
 16 17  1  0
 17 18  1  0
 18 19  2  0
 18 20  1  0
  9 21  1  0
 21 22  2  0
 22 23  1  0
 23  2  1  0
 22  6  1  0
M  CHG  2   1   1  20  -1
M  END
>  <shape_align_shape_tanimoto>  (1) 
0.64222980490436576

>  <shape_align_color_tanimoto>  (1) 
0.090706477531940999

>  <metric>  (1) 
shape

>  <metric_score>  (1) 
0.642

>  <template_pid>  (1) 
4HV7

>  <template_shape_score>  (1) 
0.642

>  <template_color_score>  (1) 
0.091

>  <template_combo_score>  (1) 
0.366

$$$$
4HV7_color_pose
     RDKit          3D

 23 24  0  0  0  0  0  0  0  0999 V2000
   -6.9061  -16.2252   19.6173 N   0  0  0  0  0  0  0  0  0  0  0  0
   -7.4789  -15.4004   20.4288 C   0  0  0  0  0  0  0  0  0  0  0  0
   -8.6711  -15.7122   20.9619 N   0  0  0  0  0  0  0  0  0  0  0  0
   -9.3307  -14.9006   21.8177 C   0  0  0  0  0  0  0  0  0  0  0  0
  -10.4449  -15.1886   22.3179 O   0  0  0  0  0  0  0  0  0  0  0  0
   -8.7016  -13.7017   22.1258 C   0  0  0  0  0  0  0  0  0  0  0  0
   -9.2831  -12.8127   22.9791 N   0  0  0  0  0  0  0  0  0  0  0  0
   -8.6587  -11.6402   23.2749 C   0  0  0  0  0  0  0  0  0  0  0  0
   -7.4505  -11.3650   22.7114 C   0  0  0  0  0  0  0  0  0  0  0  0
   -6.7687  -10.1117   23.0191 C   0  0  0  0  0  0  0  0  0  0  0  0
   -7.2942   -9.2787   23.8071 O   0  0  0  0  0  0  0  0  0  0  0  0
   -5.4956   -9.8120   22.4309 N   0  0  0  0  0  0  0  0  0  0  0  0
   -4.8942   -8.5644   22.7832 C   0  0  0  0  0  0  0  0  0  0  0  0
   -3.6037   -8.4001   22.1074 C   0  0  0  0  0  0  0  0  0  0  0  0
   -2.9667   -7.3153   22.3459 O   0  0  0  0  0  0  0  0  0  0  0  0
   -2.9842   -9.3020   21.2241 N   0  0  0  0  0  0  0  0  0  0  0  0
   -1.6949   -8.9613   20.6495 C   0  0  0  0  0  0  0  0  0  0  0  0
   -0.6486   -8.7562   21.6928 C   0  0  0  0  0  0  0  0  0  0  0  0
    0.5077   -8.4549   21.2686 O   0  0  0  0  0  0  0  0  0  0  0  0
   -0.9489   -8.8927   23.0331 O   0  0  0  0  0  0  0  0  0  0  0  0
   -6.8876  -12.2452   21.8743 N   0  0  0  0  0  0  0  0  0  0  0  0
   -7.4772  -13.4099   21.5621 C   0  0  0  0  0  0  0  0  0  0  0  0
   -6.8373  -14.2327   20.7117 N   0  0  0  0  0  0  0  0  0  0  0  0
  1  2  2  0
  2  3  1  0
  3  4  1  0
  4  5  2  0
  4  6  1  0
  6  7  2  0
  7  8  1  0
  8  9  2  0
  9 10  1  0
 10 11  2  0
 10 12  1  0
 12 13  1  0
 13 14  1  0
 14 15  2  0
 14 16  1  0
 16 17  1  0
 17 18  1  0
 18 19  2  0
 18 20  1  0
  9 21  1  0
 21 22  2  0
 22 23  1  0
 23  2  1  0
 22  6  1  0
M  CHG  2   1   1  20  -1
M  END
>  <shape_align_shape_tanimoto>  (2) 
0.57667662080537774

>  <shape_align_color_tanimoto>  (2) 
0.11740910077994401

>  <metric>  (2) 
color

>  <metric_score>  (2) 
0.117

>  <template_pid>  (2) 
4HV7

>  <template_shape_score>  (2) 
0.577

>  <template_color_score>  (2) 
0.117

>  <template_combo_score>  (2) 
0.347

$$$$
4HV7_combo_pose
     RDKit          3D

 23 24  0  0  0  0  0  0  0  0999 V2000
   -7.4011  -15.7747   20.1161 N   0  0  0  0  0  0  0  0  0  0  0  0
   -7.7204  -14.7921   20.8636 C   0  0  0  0  0  0  0  0  0  0  0  0
   -8.9126  -14.7784   21.4883 N   0  0  0  0  0  0  0  0  0  0  0  0
   -9.3118  -13.7713   22.2916 C   0  0  0  0  0  0  0  0  0  0  0  0
  -10.4063  -13.7319   22.8809 O   0  0  0  0  0  0  0  0  0  0  0  0
   -8.4192  -12.7173   22.4549 C   0  0  0  0  0  0  0  0  0  0  0  0
   -8.7083  -11.6600   23.2311 N   0  0  0  0  0  0  0  0  0  0  0  0
   -7.8503  -10.6244   23.4013 C   0  0  0  0  0  0  0  0  0  0  0  0
   -6.6309  -10.6525   22.7541 C   0  0  0  0  0  0  0  0  0  0  0  0
   -5.6619   -9.5477   22.9079 C   0  0  0  0  0  0  0  0  0  0  0  0
   -5.9873   -8.5782   23.6508 O   0  0  0  0  0  0  0  0  0  0  0  0
   -4.4399   -9.6339   22.2250 N   0  0  0  0  0  0  0  0  0  0  0  0
   -3.4549   -8.5729   22.3445 C   0  0  0  0  0  0  0  0  0  0  0  0
   -4.1197   -7.3296   21.8399 C   0  0  0  0  0  0  0  0  0  0  0  0
   -5.3240   -7.3486   21.4171 O   0  0  0  0  0  0  0  0  0  0  0  0
   -3.3645   -6.1043   21.8425 N   0  0  0  0  0  0  0  0  0  0  0  0
   -4.0514   -4.9094   21.3405 C   0  0  0  0  0  0  0  0  0  0  0  0
   -4.4640   -5.1333   19.9169 C   0  0  0  0  0  0  0  0  0  0  0  0
   -4.2278   -6.2029   19.3044 O   0  0  0  0  0  0  0  0  0  0  0  0
   -5.1300   -4.0890   19.2938 O   0  0  0  0  0  0  0  0  0  0  0  0
   -6.3475  -11.7256   21.9715 N   0  0  0  0  0  0  0  0  0  0  0  0
   -7.1993  -12.7560   21.8011 C   0  0  0  0  0  0  0  0  0  0  0  0
   -6.8270  -13.7738   21.0053 N   0  0  0  0  0  0  0  0  0  0  0  0
  1  2  2  0
  2  3  1  0
  3  4  1  0
  4  5  2  0
  4  6  1  0
  6  7  2  0
  7  8  1  0
  8  9  2  0
  9 10  1  0
 10 11  2  0
 10 12  1  0
 12 13  1  0
 13 14  1  0
 14 15  2  0
 14 16  1  0
 16 17  1  0
 17 18  1  0
 18 19  2  0
 18 20  1  0
  9 21  1  0
 21 22  2  0
 22 23  1  0
 23  2  1  0
 22  6  1  0
M  CHG  2   1   1  20  -1
M  END
>  <shape_align_shape_tanimoto>  (3) 
0.64222980490436576

>  <shape_align_color_tanimoto>  (3) 
0.090706477531940999

>  <metric>  (3) 
combo

>  <metric_score>  (3) 
0.366

>  <template_pid>  (3) 
4HV7

>  <template_shape_score>  (3) 
0.642

>  <template_color_score>  (3) 
0.091

>  <template_combo_score>  (3) 
0.366

$$$$
