3LBK_shape_pose
     RDKit          3D

 32 36  0  0  0  0  0  0  0  0999 V2000
  -15.4427  -14.6032  -23.2394 O   0  0  0  0  0  0  0  0  0  0  0  0
  -14.4832  -14.5775  -24.0524 C   0  0  0  0  0  0  0  0  0  0  0  0
  -14.5195  -13.6128  -25.0399 O   0  0  0  0  0  0  0  0  0  0  0  0
  -13.3612  -15.5222  -23.9755 C   0  0  0  0  0  0  0  0  0  0  0  0
  -12.3040  -15.5377  -24.8250 N   0  0  0  0  0  0  0  0  0  0  0  0
  -11.4579  -16.5144  -24.4834 C   0  0  0  0  0  0  0  0  0  0  0  0
  -10.2616  -16.9056  -25.0504 C   0  0  0  0  0  0  0  0  0  0  0  0
   -9.5555  -17.9674  -24.5060 C   0  0  0  0  0  0  0  0  0  0  0  0
   -8.0281  -18.4990  -25.1981 Cl  0  0  0  0  0  0  0  0  0  0  0  0
  -10.0953  -18.5927  -23.4019 C   0  0  0  0  0  0  0  0  0  0  0  0
  -11.2938  -18.2043  -22.8302 C   0  0  0  0  0  0  0  0  0  0  0  0
  -11.9960  -17.1367  -23.3838 C   0  0  0  0  0  0  0  0  0  0  0  0
  -13.1915  -16.5287  -23.0485 C   0  0  0  0  0  0  0  0  0  0  0  0
  -14.0602  -16.8922  -21.9636 C   0  0  0  0  0  0  0  0  0  0  0  0
  -15.3093  -17.4382  -22.0935 C   0  0  0  0  0  0  0  0  0  0  0  0
  -16.0709  -17.7939  -23.2831 C   0  0  0  0  0  0  0  0  0  0  0  0
  -17.2996  -17.2373  -23.5942 C   0  0  0  0  0  0  0  0  0  0  0  0
  -18.0107  -17.5841  -24.7272 C   0  0  0  0  0  0  0  0  0  0  0  0
  -17.4844  -18.5266  -25.5973 C   0  0  0  0  0  0  0  0  0  0  0  0
  -16.2527  -19.1078  -25.3188 C   0  0  0  0  0  0  0  0  0  0  0  0
  -15.5768  -18.7262  -24.1677 C   0  0  0  0  0  0  0  0  0  0  0  0
  -15.7997  -17.6294  -20.8426 N   0  0  0  0  0  0  0  0  0  0  0  0
  -14.8734  -17.2103  -19.9404 C   0  0  0  0  0  0  0  0  0  0  0  0
  -13.7989  -16.7553  -20.6520 N   0  0  0  0  0  0  0  0  0  0  0  0
  -12.6062  -16.2229  -20.0029 C   0  0  0  0  0  0  0  0  0  0  0  0
  -12.7743  -14.7427  -19.8092 C   0  0  0  0  0  0  0  0  0  0  0  0
  -12.3239  -13.9247  -20.8335 C   0  0  0  0  0  0  0  0  0  0  0  0
  -12.4314  -12.5373  -20.7567 C   0  0  0  0  0  0  0  0  0  0  0  0
  -13.0068  -12.0122  -19.6143 C   0  0  0  0  0  0  0  0  0  0  0  0
  -13.1529  -10.2745  -19.4933 Cl  0  0  0  0  0  0  0  0  0  0  0  0
  -13.4550  -12.8340  -18.5942 C   0  0  0  0  0  0  0  0  0  0  0  0
  -13.3482  -14.2147  -18.6702 C   0  0  0  0  0  0  0  0  0  0  0  0
  1  2  2  0
  2  3  1  0
  2  4  1  0
  4  5  1  0
  5  6  1  0
  6  7  2  0
  7  8  1  0
  8  9  1  0
  8 10  2  0
 10 11  1  0
 11 12  2  0
 12 13  1  0
 13 14  1  0
 14 15  2  0
 15 16  1  0
 16 17  2  0
 17 18  1  0
 18 19  2  0
 19 20  1  0
 20 21  2  0
 15 22  1  0
 22 23  2  0
 23 24  1  0
 24 25  1  0
 25 26  1  0
 26 27  2  0
 27 28  1  0
 28 29  2  0
 29 30  1  0
 29 31  1  0
 31 32  2  0
 13  4  2  0
 24 14  1  0
 32 26  1  0
 12  6  1  0
 21 16  1  0
M  CHG  1   3  -1
M  END
>  <shape_align_shape_tanimoto>  (1) 
0.27808676889704398

>  <shape_align_color_tanimoto>  (1) 
0.0086386465090316153

>  <metric>  (1) 
shape

>  <metric_score>  (1) 
0.278

>  <template_pid>  (1) 
3LBK

>  <template_shape_score>  (1) 
0.278

>  <template_color_score>  (1) 
0.009

>  <template_combo_score>  (1) 
0.143

$$$$
3LBK_color_pose
     RDKit          3D

 32 36  0  0  0  0  0  0  0  0999 V2000
  -12.8304  -16.5857  -21.8482 O   0  0  0  0  0  0  0  0  0  0  0  0
  -13.3051  -16.2489  -22.9561 C   0  0  0  0  0  0  0  0  0  0  0  0
  -13.3788  -17.1693  -24.0220 O   0  0  0  0  0  0  0  0  0  0  0  0
  -13.8018  -14.8990  -23.2013 C   0  0  0  0  0  0  0  0  0  0  0  0
  -14.3337  -14.3779  -24.3177 N   0  0  0  0  0  0  0  0  0  0  0  0
  -14.6683  -13.0916  -24.1496 C   0  0  0  0  0  0  0  0  0  0  0  0
  -15.2380  -12.1280  -24.9692 C   0  0  0  0  0  0  0  0  0  0  0  0
  -15.4615  -10.8715  -24.4877 C   0  0  0  0  0  0  0  0  0  0  0  0
  -16.1835   -9.6705  -25.5434 Cl  0  0  0  0  0  0  0  0  0  0  0  0
  -15.1478  -10.4838  -23.1968 C   0  0  0  0  0  0  0  0  0  0  0  0
  -14.5800  -11.4440  -22.3807 C   0  0  0  0  0  0  0  0  0  0  0  0
  -14.3468  -12.7287  -22.8593 C   0  0  0  0  0  0  0  0  0  0  0  0
  -13.8022  -13.8769  -22.2738 C   0  0  0  0  0  0  0  0  0  0  0  0
  -13.3475  -13.8755  -20.8882 C   0  0  0  0  0  0  0  0  0  0  0  0
  -12.1690  -13.3236  -20.4241 C   0  0  0  0  0  0  0  0  0  0  0  0
  -11.1183  -12.6374  -21.1743 C   0  0  0  0  0  0  0  0  0  0  0  0
  -10.4664  -13.3745  -22.1374 C   0  0  0  0  0  0  0  0  0  0  0  0
   -9.4570  -12.8259  -22.9028 C   0  0  0  0  0  0  0  0  0  0  0  0
   -9.0965  -11.5196  -22.7010 C   0  0  0  0  0  0  0  0  0  0  0  0
   -9.7636  -10.7944  -21.7288 C   0  0  0  0  0  0  0  0  0  0  0  0
  -10.7704  -11.3204  -20.9553 C   0  0  0  0  0  0  0  0  0  0  0  0
  -12.1368  -13.5281  -19.1140 N   0  0  0  0  0  0  0  0  0  0  0  0
  -13.2573  -14.1860  -18.7681 C   0  0  0  0  0  0  0  0  0  0  0  0
  -14.0200  -14.4061  -19.8807 N   0  0  0  0  0  0  0  0  0  0  0  0
  -15.2823  -15.0948  -19.8161 C   0  0  0  0  0  0  0  0  0  0  0  0
  -16.4246  -14.2009  -19.5968 C   0  0  0  0  0  0  0  0  0  0  0  0
  -16.8998  -13.8319  -18.3553 C   0  0  0  0  0  0  0  0  0  0  0  0
  -17.9925  -12.9748  -18.2086 C   0  0  0  0  0  0  0  0  0  0  0  0
  -18.6112  -12.4855  -19.3466 C   0  0  0  0  0  0  0  0  0  0  0  0
  -19.9906  -11.4029  -19.2739 Cl  0  0  0  0  0  0  0  0  0  0  0  0
  -18.1573  -12.8379  -20.6028 C   0  0  0  0  0  0  0  0  0  0  0  0
  -17.0708  -13.6902  -20.7031 C   0  0  0  0  0  0  0  0  0  0  0  0
  1  2  2  0
  2  3  1  0
  2  4  1  0
  4  5  1  0
  5  6  1  0
  6  7  2  0
  7  8  1  0
  8  9  1  0
  8 10  2  0
 10 11  1  0
 11 12  2  0
 12 13  1  0
 13 14  1  0
 14 15  2  0
 15 16  1  0
 16 17  2  0
 17 18  1  0
 18 19  2  0
 19 20  1  0
 20 21  2  0
 15 22  1  0
 22 23  2  0
 23 24  1  0
 24 25  1  0
 25 26  1  0
 26 27  2  0
 27 28  1  0
 28 29  2  0
 29 30  1  0
 29 31  1  0
 31 32  2  0
 13  4  2  0
 24 14  1  0
 32 26  1  0
 12  6  1  0
 21 16  1  0
M  CHG  1   3  -1
M  END
>  <shape_align_shape_tanimoto>  (2) 
0.26195661010987165

>  <shape_align_color_tanimoto>  (2) 
0.02544088391654812

>  <metric>  (2) 
color

>  <metric_score>  (2) 
0.025

>  <template_pid>  (2) 
3LBK

>  <template_shape_score>  (2) 
0.262

>  <template_color_score>  (2) 
0.025

>  <template_combo_score>  (2) 
0.144

$$$$
3LBK_combo_pose
     RDKit          3D

 32 36  0  0  0  0  0  0  0  0999 V2000
  -15.4152  -14.7124  -23.2990 O   0  0  0  0  0  0  0  0  0  0  0  0
  -14.4561  -14.6784  -24.1001 C   0  0  0  0  0  0  0  0  0  0  0  0
  -14.4744  -13.7068  -25.0865 O   0  0  0  0  0  0  0  0  0  0  0  0
  -13.3260  -15.6175  -24.0355 C   0  0  0  0  0  0  0  0  0  0  0  0
  -12.2613  -15.6332  -24.8681 N   0  0  0  0  0  0  0  0  0  0  0  0
  -11.4196  -16.6225  -24.5165 C   0  0  0  0  0  0  0  0  0  0  0  0
  -10.2210  -16.9860  -25.0984 C   0  0  0  0  0  0  0  0  0  0  0  0
   -9.5580  -18.0532  -24.5261 C   0  0  0  0  0  0  0  0  0  0  0  0
   -8.0312  -18.5395  -25.2437 Cl  0  0  0  0  0  0  0  0  0  0  0  0
  -10.0493  -18.7304  -23.4347 C   0  0  0  0  0  0  0  0  0  0  0  0
  -11.2678  -18.3354  -22.8694 C   0  0  0  0  0  0  0  0  0  0  0  0
  -11.9526  -17.2712  -23.4212 C   0  0  0  0  0  0  0  0  0  0  0  0
  -13.1612  -16.6322  -23.1183 C   0  0  0  0  0  0  0  0  0  0  0  0
  -14.0631  -17.0192  -22.0153 C   0  0  0  0  0  0  0  0  0  0  0  0
  -15.3368  -17.5825  -22.1565 C   0  0  0  0  0  0  0  0  0  0  0  0
  -16.0369  -17.9097  -23.3935 C   0  0  0  0  0  0  0  0  0  0  0  0
  -15.4035  -18.8532  -24.2108 C   0  0  0  0  0  0  0  0  0  0  0  0
  -15.9879  -19.2318  -25.4028 C   0  0  0  0  0  0  0  0  0  0  0  0
  -17.1842  -18.6706  -25.7614 C   0  0  0  0  0  0  0  0  0  0  0  0
  -17.8124  -17.7354  -24.9517 C   0  0  0  0  0  0  0  0  0  0  0  0
  -17.2412  -17.3462  -23.7568 C   0  0  0  0  0  0  0  0  0  0  0  0
  -15.8033  -17.7722  -20.9111 N   0  0  0  0  0  0  0  0  0  0  0  0
  -14.9070  -17.3655  -19.9972 C   0  0  0  0  0  0  0  0  0  0  0  0
  -13.8379  -16.9031  -20.6948 N   0  0  0  0  0  0  0  0  0  0  0  0
  -12.6421  -16.3666  -20.0527 C   0  0  0  0  0  0  0  0  0  0  0  0
  -12.8425  -14.8899  -19.8664 C   0  0  0  0  0  0  0  0  0  0  0  0
  -12.4185  -14.0239  -20.8719 C   0  0  0  0  0  0  0  0  0  0  0  0
  -12.5814  -12.6496  -20.7497 C   0  0  0  0  0  0  0  0  0  0  0  0
  -13.1737  -12.1300  -19.6125 C   0  0  0  0  0  0  0  0  0  0  0  0
  -13.3771  -10.3948  -19.4612 Cl  0  0  0  0  0  0  0  0  0  0  0  0
  -13.5970  -13.0014  -18.6073 C   0  0  0  0  0  0  0  0  0  0  0  0
  -13.4309  -14.3650  -18.7378 C   0  0  0  0  0  0  0  0  0  0  0  0
  1  2  2  0
  2  3  1  0
  2  4  1  0
  4  5  1  0
  5  6  1  0
  6  7  2  0
  7  8  1  0
  8  9  1  0
  8 10  2  0
 10 11  1  0
 11 12  2  0
 12 13  1  0
 13 14  1  0
 14 15  2  0
 15 16  1  0
 16 17  2  0
 17 18  1  0
 18 19  2  0
 19 20  1  0
 20 21  2  0
 15 22  1  0
 22 23  2  0
 23 24  1  0
 24 25  1  0
 25 26  1  0
 26 27  2  0
 27 28  1  0
 28 29  2  0
 29 30  1  0
 29 31  1  0
 31 32  2  0
 13  4  2  0
 24 14  1  0
 32 26  1  0
 12  6  1  0
 21 16  1  0
M  CHG  1   3  -1
M  END
>  <shape_align_shape_tanimoto>  (3) 
0.27772408050154279

>  <shape_align_color_tanimoto>  (3) 
0.010011435980136587

>  <metric>  (3) 
combo

>  <metric_score>  (3) 
0.144

>  <template_pid>  (3) 
3LBK

>  <template_shape_score>  (3) 
0.278

>  <template_color_score>  (3) 
0.010

>  <template_combo_score>  (3) 
0.144

$$$$
