5DGU_shape_pose
     RDKit          3D

 42 45  0  0  0  0  0  0  0  0999 V2000
   -0.2488   -3.9901   15.6031 C   0  0  0  0  0  0  0  0  0  0  0  0
    0.8352   -4.8118   15.9458 O   0  0  0  0  0  0  0  0  0  0  0  0
    2.1094   -4.3601   16.1669 C   0  0  0  0  0  0  0  0  0  0  0  0
    3.0957   -5.2931   16.5047 C   0  0  0  0  0  0  0  0  0  0  0  0
    4.4016   -4.9060   16.7422 C   0  0  0  0  0  0  0  0  0  0  0  0
    4.7841   -3.5921   16.6571 C   0  0  0  0  0  0  0  0  0  0  0  0
    6.4638   -3.1457   16.9650 S   0  0  0  0  0  0  0  0  0  0  0  0
    6.3946   -1.6677   17.3459 O   0  0  0  0  0  0  0  0  0  0  0  0
    7.0236   -3.8378   18.1350 O   0  0  0  0  0  0  0  0  0  0  0  0
    7.3942   -3.2207   15.5296 N   0  0  0  0  0  0  0  0  0  0  0  0
    7.4472   -4.5096   14.9566 C   0  0  0  0  0  0  0  0  0  0  0  0
    8.6087   -5.3792   15.2614 C   0  0  0  0  0  0  0  0  0  0  0  0
    8.8492   -5.7437   16.6796 C   0  0  0  0  0  0  0  0  0  0  0  0
    9.8979   -4.7770   14.6805 C   0  0  0  0  0  0  0  0  0  0  0  0
    6.9040   -2.2520   14.5747 C   0  0  0  0  0  0  0  0  0  0  0  0
    7.7098   -0.9448   14.6018 C   0  0  1  0  0  0  0  0  0  0  0  0
    9.0167   -1.3936   14.2718 O   0  0  0  0  0  0  0  0  0  0  0  0
    7.3226   -0.0844   13.4467 C   0  0  2  0  0  0  0  0  0  0  0  0
    8.3696    0.9345   13.0563 C   0  0  0  0  0  0  0  0  0  0  0  0
    7.9142    1.7644   11.8870 C   0  0  0  0  0  0  0  0  0  0  0  0
    8.1935    1.3592   10.5958 C   0  0  0  0  0  0  0  0  0  0  0  0
    7.7638    2.1395    9.5378 C   0  0  0  0  0  0  0  0  0  0  0  0
    7.0598    3.3188    9.7592 C   0  0  0  0  0  0  0  0  0  0  0  0
    6.8008    3.6888   11.0857 C   0  0  0  0  0  0  0  0  0  0  0  0
    7.2110    2.9400   12.1519 C   0  0  0  0  0  0  0  0  0  0  0  0
    6.0466    0.5476   13.4961 N   0  0  0  0  0  0  0  0  0  0  0  0
    4.9230    0.2111   12.6882 C   0  0  0  0  0  0  0  0  0  0  0  0
    5.0512   -0.7242   11.8607 O   0  0  0  0  0  0  0  0  0  0  0  0
    3.7773    0.9426   12.8787 O   0  0  0  0  0  0  0  0  0  0  0  0
    2.6298    0.6464   12.1082 C   0  0  1  0  0  0  0  0  0  0  0  0
    1.4282    0.3565   12.9341 C   0  0  0  0  0  0  0  0  0  0  0  0
    0.1975    0.5527   12.0855 C   0  0  0  0  0  0  0  0  0  0  0  0
    0.1280    1.7717   11.4457 O   0  0  0  0  0  0  0  0  0  0  0  0
    1.1392    1.9168   10.4966 C   0  0  1  0  0  0  0  0  0  0  0  0
    1.0969    3.1912    9.9988 O   0  0  0  0  0  0  0  0  0  0  0  0
    1.9964    4.0025   10.6835 C   0  0  0  0  0  0  0  0  0  0  0  0
    2.4251    3.1674   11.9108 C   0  0  2  0  0  0  0  0  0  0  0  0
    3.6329    3.5864   12.4043 O   0  0  0  0  0  0  0  0  0  0  0  0
    3.4811    3.9265   13.7484 C   0  0  0  0  0  0  0  0  0  0  0  0
    2.4517    1.8326   11.2016 C   0  0  1  0  0  0  0  0  0  0  0  0
    3.8240   -2.6600   16.3254 C   0  0  0  0  0  0  0  0  0  0  0  0
    2.5072   -3.0450   16.0851 C   0  0  0  0  0  0  0  0  0  0  0  0
  1  2  1  0
  2  3  1  0
  3  4  2  0
  4  5  1  0
  5  6  2  0
  6  7  1  0
  7  8  2  0
  7  9  2  0
  7 10  1  0
 10 11  1  0
 11 12  1  0
 12 13  1  0
 12 14  1  0
 10 15  1  0
 15 16  1  0
 16 17  1  6
 16 18  1  0
 18 19  1  1
 19 20  1  0
 20 21  2  0
 21 22  1  0
 22 23  2  0
 23 24  1  0
 24 25  2  0
 18 26  1  0
 26 27  1  0
 27 28  2  0
 27 29  1  0
 30 29  1  1
 30 31  1  0
 31 32  1  0
 32 33  1  0
 34 33  1  1
 34 35  1  0
 35 36  1  0
 36 37  1  0
 37 38  1  6
 38 39  1  0
 40 37  1  1
  6 41  1  0
 41 42  2  0
 42  3  1  0
 25 20  1  0
 40 30  1  0
 40 34  1  0
M  END
>  <shape_align_shape_tanimoto>  (1) 
0.58090971517048484

>  <shape_align_color_tanimoto>  (1) 
0.028053732799872663

>  <metric>  (1) 
shape

>  <metric_score>  (1) 
0.581

>  <template_pid>  (1) 
5DGU

>  <template_shape_score>  (1) 
0.581

>  <template_color_score>  (1) 
0.028

>  <template_combo_score>  (1) 
0.304

$$$$
5DGU_color_pose
     RDKit          3D

 42 45  0  0  0  0  0  0  0  0999 V2000
   -0.7189   -0.9113   14.8268 C   0  0  0  0  0  0  0  0  0  0  0  0
    0.1659   -1.5204   13.9359 O   0  0  0  0  0  0  0  0  0  0  0  0
    1.1230   -0.7724   13.2690 C   0  0  0  0  0  0  0  0  0  0  0  0
    1.2675    0.5928   13.4090 C   0  0  0  0  0  0  0  0  0  0  0  0
    2.2499    1.2893   12.7224 C   0  0  0  0  0  0  0  0  0  0  0  0
    3.1309    0.6543   11.8678 C   0  0  0  0  0  0  0  0  0  0  0  0
    4.4359    1.3840   11.0213 S   0  0  0  0  0  0  0  0  0  0  0  0
    4.1797    2.8554   10.7815 O   0  0  0  0  0  0  0  0  0  0  0  0
    4.5488    0.7678    9.6547 O   0  0  0  0  0  0  0  0  0  0  0  0
    5.9923    1.1584   11.7775 N   0  0  0  0  0  0  0  0  0  0  0  0
    6.5537    2.4354   12.1553 C   0  0  0  0  0  0  0  0  0  0  0  0
    7.3508    2.9382   10.9245 C   0  0  0  0  0  0  0  0  0  0  0  0
    8.4004    1.8929   10.6611 C   0  0  0  0  0  0  0  0  0  0  0  0
    8.0868    4.1914   11.3550 C   0  0  0  0  0  0  0  0  0  0  0  0
    5.8885    0.2381   12.8848 C   0  0  0  0  0  0  0  0  0  0  0  0
    6.2784    0.7873   14.2382 C   0  0  1  0  0  0  0  0  0  0  0  0
    5.4638    2.0023   14.2997 O   0  0  0  0  0  0  0  0  0  0  0  0
    5.5859    0.0067   15.3758 C   0  0  2  0  0  0  0  0  0  0  0  0
    5.4005    0.9329   16.5169 C   0  0  0  0  0  0  0  0  0  0  0  0
    6.5720    1.4624   17.1864 C   0  0  0  0  0  0  0  0  0  0  0  0
    6.9520    0.7925   18.3826 C   0  0  0  0  0  0  0  0  0  0  0  0
    8.0650    1.1694   19.0967 C   0  0  0  0  0  0  0  0  0  0  0  0
    8.8678    2.2230   18.6790 C   0  0  0  0  0  0  0  0  0  0  0  0
    8.5226    2.8890   17.5249 C   0  0  0  0  0  0  0  0  0  0  0  0
    7.3873    2.4836   16.8212 C   0  0  0  0  0  0  0  0  0  0  0  0
    6.1489   -1.2359   15.7381 N   0  0  0  0  0  0  0  0  0  0  0  0
    7.1109   -2.0757   15.2115 C   0  0  0  0  0  0  0  0  0  0  0  0
    7.7929   -1.9096   14.1905 O   0  0  0  0  0  0  0  0  0  0  0  0
    7.3737   -3.2821   15.9106 O   0  0  0  0  0  0  0  0  0  0  0  0
    8.3530   -4.1676   15.4485 C   0  0  1  0  0  0  0  0  0  0  0  0
    9.5885   -4.0946   16.3568 C   0  0  0  0  0  0  0  0  0  0  0  0
   10.0693   -5.4909   16.5491 C   0  0  0  0  0  0  0  0  0  0  0  0
    9.1103   -6.1974   17.2771 O   0  0  0  0  0  0  0  0  0  0  0  0
    7.9676   -6.3996   16.5289 C   0  0  1  0  0  0  0  0  0  0  0  0
    6.7769   -6.1027   17.1333 O   0  0  0  0  0  0  0  0  0  0  0  0
    5.8663   -5.7791   16.1315 C   0  0  0  0  0  0  0  0  0  0  0  0
    6.5838   -5.8782   14.7976 C   0  0  2  0  0  0  0  0  0  0  0  0
    6.5216   -7.1822   14.2926 O   0  0  0  0  0  0  0  0  0  0  0  0
    5.9258   -7.2287   13.0350 C   0  0  0  0  0  0  0  0  0  0  0  0
    7.9928   -5.5681   15.2432 C   0  0  1  0  0  0  0  0  0  0  0  0
    2.9525   -0.7193   11.7505 C   0  0  0  0  0  0  0  0  0  0  0  0
    1.9847   -1.4184   12.4237 C   0  0  0  0  0  0  0  0  0  0  0  0
  1  2  1  0
  2  3  1  0
  3  4  2  0
  4  5  1  0
  5  6  2  0
  6  7  1  0
  7  8  2  0
  7  9  2  0
  7 10  1  0
 10 11  1  0
 11 12  1  0
 12 13  1  0
 12 14  1  0
 10 15  1  0
 15 16  1  0
 16 17  1  6
 16 18  1  0
 18 19  1  1
 19 20  1  0
 20 21  2  0
 21 22  1  0
 22 23  2  0
 23 24  1  0
 24 25  2  0
 18 26  1  0
 26 27  1  0
 27 28  2  0
 27 29  1  0
 30 29  1  1
 30 31  1  0
 31 32  1  0
 32 33  1  0
 34 33  1  1
 34 35  1  0
 35 36  1  0
 36 37  1  0
 37 38  1  1
 38 39  1  0
 40 37  1  1
  6 41  1  0
 41 42  2  0
 42  3  1  0
 25 20  1  0
 40 30  1  0
 40 34  1  0
M  END
>  <shape_align_shape_tanimoto>  (2) 
0.42535005450475372

>  <shape_align_color_tanimoto>  (2) 
0.1101592882818597

>  <metric>  (2) 
color

>  <metric_score>  (2) 
0.110

>  <template_pid>  (2) 
5DGU

>  <template_shape_score>  (2) 
0.425

>  <template_color_score>  (2) 
0.110

>  <template_combo_score>  (2) 
0.268

$$$$
5DGU_combo_pose
     RDKit          3D

 42 45  0  0  0  0  0  0  0  0999 V2000
    5.7937    5.4107    6.9728 C   0  0  0  0  0  0  0  0  0  0  0  0
    5.8530    5.4326    8.3671 O   0  0  0  0  0  0  0  0  0  0  0  0
    4.9703    4.7411    9.1884 C   0  0  0  0  0  0  0  0  0  0  0  0
    3.9442    3.9637    8.7306 C   0  0  0  0  0  0  0  0  0  0  0  0
    3.1193    3.3145    9.6278 C   0  0  0  0  0  0  0  0  0  0  0  0
    3.2794    3.4108   10.9928 C   0  0  0  0  0  0  0  0  0  0  0  0
    2.2896    2.6514   12.1723 S   0  0  0  0  0  0  0  0  0  0  0  0
    0.8907    2.5619   11.5484 O   0  0  0  0  0  0  0  0  0  0  0  0
    2.0693    3.6156   13.3458 O   0  0  0  0  0  0  0  0  0  0  0  0
    2.6957    1.1191   12.6926 N   0  0  0  0  0  0  0  0  0  0  0  0
    1.7992    0.0510   12.3641 C   0  0  0  0  0  0  0  0  0  0  0  0
    2.0975   -0.7649   11.1752 C   0  0  0  0  0  0  0  0  0  0  0  0
    0.9888   -1.8244   11.0555 C   0  0  0  0  0  0  0  0  0  0  0  0
    2.1223   -0.0548    9.8583 C   0  0  0  0  0  0  0  0  0  0  0  0
    4.0464    0.7342   12.8518 C   0  0  0  0  0  0  0  0  0  0  0  0
    4.5900    1.0869   14.2189 C   0  0  1  0  0  0  0  0  0  0  0  0
    3.7052    0.4567   15.1696 O   0  0  0  0  0  0  0  0  0  0  0  0
    5.9153    0.5274   14.5584 C   0  0  2  0  0  0  0  0  0  0  0  0
    7.1578    1.0877   14.0490 C   0  0  0  0  0  0  0  0  0  0  0  0
    7.4440    1.1648   12.6321 C   0  0  0  0  0  0  0  0  0  0  0  0
    7.2237    2.2709   11.8213 C   0  0  0  0  0  0  0  0  0  0  0  0
    7.5142    2.2728   10.4722 C   0  0  0  0  0  0  0  0  0  0  0  0
    8.0487    1.1442    9.8639 C   0  0  0  0  0  0  0  0  0  0  0  0
    8.2697    0.0564   10.6430 C   0  0  0  0  0  0  0  0  0  0  0  0
    7.9827    0.0483   11.9859 C   0  0  0  0  0  0  0  0  0  0  0  0
    5.9540   -0.9335   14.4299 N   0  0  0  0  0  0  0  0  0  0  0  0
    6.0728   -1.7876   15.5604 C   0  0  0  0  0  0  0  0  0  0  0  0
    6.1542   -1.2903   16.7271 O   0  0  0  0  0  0  0  0  0  0  0  0
    6.1045   -3.1817   15.4542 O   0  0  0  0  0  0  0  0  0  0  0  0
    6.2253   -3.9659   16.6311 C   0  0  1  0  0  0  0  0  0  0  0  0
    5.0882   -4.9199   16.8444 C   0  0  0  0  0  0  0  0  0  0  0  0
    5.3495   -6.1938   16.1225 C   0  0  0  0  0  0  0  0  0  0  0  0
    6.0265   -6.0163   14.9166 O   0  0  0  0  0  0  0  0  0  0  0  0
    7.2857   -5.4968   15.0831 C   0  0  1  0  0  0  0  0  0  0  0  0
    7.4121   -4.3951   14.2206 O   0  0  0  0  0  0  0  0  0  0  0  0
    8.6484   -3.8375   14.5931 C   0  0  0  0  0  0  0  0  0  0  0  0
    8.6701   -3.9194   16.1063 C   0  0  2  0  0  0  0  0  0  0  0  0
    9.8389   -4.4905   16.6024 O   0  0  0  0  0  0  0  0  0  0  0  0
   10.3776   -3.5196   17.4757 C   0  0  0  0  0  0  0  0  0  0  0  0
    7.4745   -4.8002   16.4238 C   0  0  1  0  0  0  0  0  0  0  0  0
    4.3309    4.2081   11.4262 C   0  0  0  0  0  0  0  0  0  0  0  0
    5.1587    4.8591   10.5454 C   0  0  0  0  0  0  0  0  0  0  0  0
  1  2  1  0
  2  3  1  0
  3  4  2  0
  4  5  1  0
  5  6  2  0
  6  7  1  0
  7  8  2  0
  7  9  2  0
  7 10  1  0
 10 11  1  0
 11 12  1  0
 12 13  1  0
 12 14  1  0
 10 15  1  0
 15 16  1  0
 16 17  1  1
 16 18  1  0
 18 19  1  6
 19 20  1  0
 20 21  2  0
 21 22  1  0
 22 23  2  0
 23 24  1  0
 24 25  2  0
 18 26  1  0
 26 27  1  0
 27 28  2  0
 27 29  1  0
 30 29  1  6
 30 31  1  0
 31 32  1  0
 32 33  1  0
 34 33  1  1
 34 35  1  0
 35 36  1  0
 36 37  1  0
 37 38  1  6
 38 39  1  0
 40 37  1  6
  6 41  1  0
 41 42  2  0
 42  3  1  0
 25 20  1  0
 40 30  1  0
 40 34  1  0
M  END
>  <shape_align_shape_tanimoto>  (3) 
0.57862611548845022

>  <shape_align_color_tanimoto>  (3) 
0.052690629155724006

>  <metric>  (3) 
combo

>  <metric_score>  (3) 
0.316

>  <template_pid>  (3) 
5DGU

>  <template_shape_score>  (3) 
0.579

>  <template_color_score>  (3) 
0.053

>  <template_combo_score>  (3) 
0.316

$$$$
