6FTF_shape_pose
     RDKit          3D

 21 23  0  0  0  0  0  0  0  0999 V2000
  -26.5213    1.3232  -17.4681 N   0  0  0  0  0  0  0  0  0  0  0  0
  -25.9651    2.2983  -17.1234 C   0  0  0  0  0  0  0  0  0  0  0  0
  -25.2711    3.4886  -16.7026 C   0  0  0  0  0  0  0  0  0  0  0  0
  -24.1706    4.0938  -17.2921 C   0  0  0  0  0  0  0  0  0  0  0  0
  -23.8300    5.1772  -16.5963 N   0  0  0  0  0  0  0  0  0  0  0  0
  -22.7345    6.0453  -16.9229 C   0  0  2  0  0  0  0  0  0  0  0  0
  -22.6921    7.1567  -16.0570 O   0  0  0  0  0  0  0  0  0  0  0  0
  -21.5367    7.7757  -16.5496 C   0  0  2  0  0  0  0  0  0  0  0  0
  -21.3249    9.1528  -15.9617 C   0  0  0  0  0  0  0  0  0  0  0  0
  -22.3763    9.9962  -16.2428 O   0  0  0  0  0  0  0  0  0  0  0  0
  -21.8432    7.8685  -18.0436 C   0  0  1  0  0  0  0  0  0  0  0  0
  -20.6982    7.5245  -18.7562 O   0  0  0  0  0  0  0  0  0  0  0  0
  -22.8577    6.7349  -18.2470 C   0  0  1  0  0  0  0  0  0  0  0  0
  -22.4588    5.8716  -19.2497 O   0  0  0  0  0  0  0  0  0  0  0  0
  -24.6734    5.3170  -15.5528 C   0  0  0  0  0  0  0  0  0  0  0  0
  -24.7550    6.2275  -14.5726 N   0  0  0  0  0  0  0  0  0  0  0  0
  -25.7278    6.1052  -13.6470 C   0  0  0  0  0  0  0  0  0  0  0  0
  -26.6290    5.1027  -13.6610 N   0  0  0  0  0  0  0  0  0  0  0  0
  -26.5903    4.1626  -14.6240 C   0  0  0  0  0  0  0  0  0  0  0  0
  -27.4235    3.2018  -14.6704 O   0  0  0  0  0  0  0  0  0  0  0  0
  -25.5921    4.2624  -15.5991 C   0  0  0  0  0  0  0  0  0  0  0  0
  1  2  3  0
  2  3  1  0
  3  4  2  0
  4  5  1  0
  6  5  1  1
  6  7  1  0
  7  8  1  0
  8  9  1  1
  9 10  1  0
  8 11  1  0
 11 12  1  6
 11 13  1  0
 13 14  1  6
  5 15  1  0
 15 16  1  0
 16 17  2  0
 17 18  1  0
 18 19  1  0
 19 20  2  0
 19 21  1  0
 21  3  1  0
 13  6  1  0
 21 15  2  0
M  END
>  <shape_align_shape_tanimoto>  (1) 
0.7126099078825876

>  <shape_align_color_tanimoto>  (1) 
0.10200600334021191

>  <metric>  (1) 
shape

>  <metric_score>  (1) 
0.713

>  <template_pid>  (1) 
6FTF

>  <template_shape_score>  (1) 
0.713

>  <template_color_score>  (1) 
0.102

>  <template_combo_score>  (1) 
0.407

$$$$
6FTF_color_pose
     RDKit          3D

 21 23  0  0  0  0  0  0  0  0999 V2000
  -27.6254    4.8821  -12.8328 N   0  0  0  0  0  0  0  0  0  0  0  0
  -26.7968    5.0464  -13.6156 C   0  0  0  0  0  0  0  0  0  0  0  0
  -25.7684    5.2638  -14.6072 C   0  0  0  0  0  0  0  0  0  0  0  0
  -24.9478    6.3536  -14.6880 C   0  0  0  0  0  0  0  0  0  0  0  0
  -24.0941    6.2313  -15.7458 N   0  0  0  0  0  0  0  0  0  0  0  0
  -23.0820    7.1906  -16.1437 C   0  0  2  0  0  0  0  0  0  0  0  0
  -23.4080    7.8583  -17.3144 O   0  0  0  0  0  0  0  0  0  0  0  0
  -22.2882    8.0001  -18.0944 C   0  0  2  0  0  0  0  0  0  0  0  0
  -22.2144    6.9891  -19.2279 C   0  0  0  0  0  0  0  0  0  0  0  0
  -23.3553    7.1942  -20.0167 O   0  0  0  0  0  0  0  0  0  0  0  0
  -21.0840    7.6845  -17.2015 C   0  0  1  0  0  0  0  0  0  0  0  0
  -20.8067    8.8257  -16.4837 O   0  0  0  0  0  0  0  0  0  0  0  0
  -21.7202    6.6007  -16.3226 C   0  0  1  0  0  0  0  0  0  0  0  0
  -21.0194    6.5037  -15.1147 O   0  0  0  0  0  0  0  0  0  0  0  0
  -24.3831    5.0545  -16.3320 C   0  0  0  0  0  0  0  0  0  0  0  0
  -23.8756    4.4326  -17.3865 N   0  0  0  0  0  0  0  0  0  0  0  0
  -24.3673    3.2375  -17.7584 C   0  0  0  0  0  0  0  0  0  0  0  0
  -25.3666    2.6105  -17.1172 N   0  0  0  0  0  0  0  0  0  0  0  0
  -25.9133    3.2029  -16.0413 C   0  0  0  0  0  0  0  0  0  0  0  0
  -26.8654    2.6290  -15.4123 O   0  0  0  0  0  0  0  0  0  0  0  0
  -25.4187    4.4291  -15.6486 C   0  0  0  0  0  0  0  0  0  0  0  0
  1  2  3  0
  2  3  1  0
  3  4  2  0
  4  5  1  0
  6  5  1  6
  6  7  1  0
  7  8  1  0
  8  9  1  6
  9 10  1  0
  8 11  1  0
 11 12  1  1
 11 13  1  0
 13 14  1  1
  5 15  1  0
 15 16  1  0
 16 17  2  0
 17 18  1  0
 18 19  1  0
 19 20  2  0
 19 21  1  0
 21  3  1  0
 13  6  1  0
 21 15  2  0
M  END
>  <shape_align_shape_tanimoto>  (2) 
0.601771446207928

>  <shape_align_color_tanimoto>  (2) 
0.17395660661092524

>  <metric>  (2) 
color

>  <metric_score>  (2) 
0.174

>  <template_pid>  (2) 
6FTF

>  <template_shape_score>  (2) 
0.602

>  <template_color_score>  (2) 
0.174

>  <template_combo_score>  (2) 
0.388

$$$$
6FTF_combo_pose
     RDKit          3D

 21 23  0  0  0  0  0  0  0  0999 V2000
  -22.1588    7.0322  -17.6824 N   0  0  0  0  0  0  0  0  0  0  0  0
  -22.9440    6.2736  -17.2478 C   0  0  0  0  0  0  0  0  0  0  0  0
  -23.9031    5.3377  -16.7046 C   0  0  0  0  0  0  0  0  0  0  0  0
  -24.2499    4.1007  -17.1803 C   0  0  0  0  0  0  0  0  0  0  0  0
  -25.1831    3.5309  -16.3967 N   0  0  0  0  0  0  0  0  0  0  0  0
  -25.8186    2.2482  -16.5323 C   0  0  2  0  0  0  0  0  0  0  0  0
  -25.5028    1.6171  -17.7233 O   0  0  0  0  0  0  0  0  0  0  0  0
  -26.3443    0.5085  -17.7385 C   0  0  2  0  0  0  0  0  0  0  0  0
  -26.7056    0.0903  -19.1615 C   0  0  0  0  0  0  0  0  0  0  0  0
  -27.5494   -1.0269  -19.0402 O   0  0  0  0  0  0  0  0  0  0  0  0
  -27.6183    0.8832  -17.0472 C   0  0  1  0  0  0  0  0  0  0  0  0
  -27.7782    0.2018  -15.8194 O   0  0  0  0  0  0  0  0  0  0  0  0
  -27.3258    2.3400  -16.6652 C   0  0  1  0  0  0  0  0  0  0  0  0
  -27.9623    2.6872  -15.4897 O   0  0  0  0  0  0  0  0  0  0  0  0
  -25.4533    4.3927  -15.4022 C   0  0  0  0  0  0  0  0  0  0  0  0
  -26.2726    4.4090  -14.3280 N   0  0  0  0  0  0  0  0  0  0  0  0
  -26.3529    5.4197  -13.4682 C   0  0  0  0  0  0  0  0  0  0  0  0
  -25.5948    6.5245  -13.6246 N   0  0  0  0  0  0  0  0  0  0  0  0
  -24.7481    6.5978  -14.6672 C   0  0  0  0  0  0  0  0  0  0  0  0
  -24.0481    7.6326  -14.8007 O   0  0  0  0  0  0  0  0  0  0  0  0
  -24.6634    5.5356  -15.5713 C   0  0  0  0  0  0  0  0  0  0  0  0
  1  2  3  0
  2  3  1  0
  3  4  2  0
  4  5  1  0
  6  5  1  6
  6  7  1  0
  7  8  1  0
  8  9  1  6
  9 10  1  0
  8 11  1  0
 11 12  1  1
 11 13  1  0
 13 14  1  1
  5 15  1  0
 15 16  1  0
 16 17  2  0
 17 18  1  0
 18 19  1  0
 19 20  2  0
 19 21  1  0
 21  3  1  0
 13  6  1  0
 21 15  2  0
M  END
>  <shape_align_shape_tanimoto>  (3) 
0.69809830630301994

>  <shape_align_color_tanimoto>  (3) 
0.16611596664273062

>  <metric>  (3) 
combo

>  <metric_score>  (3) 
0.432

>  <template_pid>  (3) 
6FTF

>  <template_shape_score>  (3) 
0.698

>  <template_color_score>  (3) 
0.166

>  <template_combo_score>  (3) 
0.432

$$$$
