5TA4_shape_pose
     RDKit          3D

 40 42  0  0  0  0  0  0  0  0999 V2000
  -12.2234   -3.9826   54.8983 C   0  0  0  0  0  0  0  0  0  0  0  0
  -12.6377   -4.7325   55.9858 O   0  0  0  0  0  0  0  0  0  0  0  0
  -11.7841   -5.8073   56.2534 C   0  0  2  0  0  0  0  0  0  0  0  0
  -12.7035   -7.0195   56.1465 C   0  0  0  0  0  0  0  0  0  0  0  0
  -12.1363   -8.3316   56.4587 C   0  0  0  0  0  0  0  0  0  0  0  0
  -13.2432   -9.3600   56.7024 C   0  0  0  0  0  0  0  0  0  0  0  0
  -13.2442   -9.9713   57.8390 C   0  0  0  0  0  0  0  0  0  0  0  0
  -14.0907  -10.9737   58.4324 C   0  0  0  0  0  0  0  0  0  0  0  0
  -13.5144  -12.2552   58.5265 C   0  0  0  0  0  0  0  0  0  0  0  0
  -14.1597  -13.2982   59.1425 C   0  0  0  0  0  0  0  0  0  0  0  0
  -15.4043  -13.0613   59.6774 C   0  0  0  0  0  0  0  0  0  0  0  0
  -16.0235  -11.8062   59.6117 C   0  0  0  0  0  0  0  0  0  0  0  0
  -15.3327  -10.8031   58.9819 C   0  0  0  0  0  0  0  0  0  0  0  0
  -17.3329  -11.6889   60.2628 C   0  0  1  0  0  0  0  0  0  0  0  0
  -17.9159  -13.0663   60.5834 C   0  0  0  0  0  0  0  0  0  0  0  0
  -17.1947  -10.9338   61.4597 O   0  0  0  0  0  0  0  0  0  0  0  0
  -17.9400   -9.8275   61.8039 C   0  0  0  0  0  0  0  0  0  0  0  0
  -18.8416   -9.5032   60.9359 O   0  0  0  0  0  0  0  0  0  0  0  0
  -17.8419   -8.9992   62.9800 C   0  0  2  0  0  0  0  0  0  0  0  0
  -17.6811   -9.5391   64.3375 C   0  0  0  0  0  0  0  0  0  0  0  0
  -17.4961   -8.4231   65.3273 C   0  0  0  0  0  0  0  0  0  0  0  0
  -17.8762   -7.0193   64.9243 C   0  0  0  0  0  0  0  0  0  0  0  0
  -18.2485   -6.9237   63.5750 N   0  0  0  0  0  0  0  0  0  0  0  0
  -19.0227   -8.0866   63.1208 N   0  0  0  0  0  0  0  0  0  0  0  0
  -17.9180   -6.0216   62.6150 C   0  0  0  0  0  0  0  0  0  0  0  0
  -18.5148   -6.2887   61.5115 O   0  0  0  0  0  0  0  0  0  0  0  0
  -17.0434   -4.8245   62.5079 C   0  0  2  0  0  0  0  0  0  0  0  0
  -17.9188   -3.6230   62.6770 C   0  0  0  0  0  0  0  0  0  0  0  0
  -16.5859   -4.9668   61.0915 N   0  0  0  0  0  0  0  0  0  0  0  0
  -15.2487   -4.7653   60.6863 C   0  0  0  0  0  0  0  0  0  0  0  0
  -14.5367   -4.1152   61.4379 O   0  0  0  0  0  0  0  0  0  0  0  0
  -14.8093   -5.3197   59.4285 C   0  0  2  0  0  0  0  0  0  0  0  0
  -15.2017   -6.8020   59.3418 C   0  0  0  0  0  0  0  0  0  0  0  0
  -14.7987   -7.6605   60.4501 C   0  0  0  0  0  0  0  0  0  0  0  0
  -16.5696   -7.0587   58.8531 C   0  0  0  0  0  0  0  0  0  0  0  0
  -13.5839   -5.0137   58.8064 N   0  0  0  0  0  0  0  0  0  0  0  0
  -12.4778   -5.8754   58.5959 C   0  0  0  0  0  0  0  0  0  0  0  0
  -12.4682   -6.9305   59.2350 O   0  0  0  0  0  0  0  0  0  0  0  0
  -11.3220   -5.6321   57.6965 C   0  0  2  0  0  0  0  0  0  0  0  0
  -10.9392   -4.1742   57.8498 C   0  0  0  0  0  0  0  0  0  0  0  0
  1  2  1  0
  3  2  1  1
  3  4  1  0
  4  5  1  0
  5  6  1  0
  6  7  2  0
  7  8  1  0
  8  9  1  0
  9 10  2  0
 10 11  1  0
 11 12  2  0
 12 13  1  0
 12 14  1  0
 14 15  1  1
 14 16  1  0
 16 17  1  0
 17 18  2  0
 17 19  1  0
 19 20  1  1
 20 21  1  0
 21 22  1  0
 22 23  1  0
 23 24  1  0
 23 25  1  0
 25 26  2  0
 25 27  1  0
 27 28  1  6
 27 29  1  0
 29 30  1  0
 30 31  2  0
 30 32  1  0
 32 33  1  1
 33 34  1  0
 33 35  1  0
 32 36  1  0
 36 37  1  0
 37 38  2  0
 37 39  1  0
 39 40  1  6
 39  3  1  0
 13  8  2  0
 24 19  1  0
M  CHG  1  24   1
M  END
>  <shape_align_shape_tanimoto>  (1) 
0.45677574313923397

>  <shape_align_color_tanimoto>  (1) 
0.020403027408065384

>  <metric>  (1) 
shape

>  <metric_score>  (1) 
0.457

>  <template_pid>  (1) 
5TA4

>  <template_shape_score>  (1) 
0.457

>  <template_color_score>  (1) 
0.020

>  <template_combo_score>  (1) 
0.239

$$$$
5TA4_color_pose
     RDKit          3D

 40 42  0  0  0  0  0  0  0  0999 V2000
  -11.2164   -4.6316   55.8852 C   0  0  0  0  0  0  0  0  0  0  0  0
  -10.9699   -5.2572   57.1000 O   0  0  0  0  0  0  0  0  0  0  0  0
  -12.1142   -5.1183   57.9597 C   0  0  2  0  0  0  0  0  0  0  0  0
  -11.6055   -4.2337   59.0366 C   0  0  0  0  0  0  0  0  0  0  0  0
  -12.4218   -3.8934   60.2050 C   0  0  0  0  0  0  0  0  0  0  0  0
  -12.4212   -4.7863   61.3681 C   0  0  0  0  0  0  0  0  0  0  0  0
  -11.6112   -5.7712   61.6350 C   0  0  0  0  0  0  0  0  0  0  0  0
  -11.6891   -6.6179   62.8344 C   0  0  0  0  0  0  0  0  0  0  0  0
  -10.7474   -6.2738   63.8168 C   0  0  0  0  0  0  0  0  0  0  0  0
  -10.6569   -6.9622   65.0040 C   0  0  0  0  0  0  0  0  0  0  0  0
  -11.5315   -8.0073   65.1868 C   0  0  0  0  0  0  0  0  0  0  0  0
  -12.4779   -8.3663   64.2156 C   0  0  0  0  0  0  0  0  0  0  0  0
  -12.5574   -7.6531   63.0131 C   0  0  0  0  0  0  0  0  0  0  0  0
  -13.3132   -9.5330   64.5172 C   0  0  1  0  0  0  0  0  0  0  0  0
  -12.5069  -10.4650   65.4179 C   0  0  0  0  0  0  0  0  0  0  0  0
  -14.5068   -9.1273   65.1599 O   0  0  0  0  0  0  0  0  0  0  0  0
  -15.7521   -9.4860   64.6090 C   0  0  0  0  0  0  0  0  0  0  0  0
  -15.6852  -10.1521   63.5432 O   0  0  0  0  0  0  0  0  0  0  0  0
  -17.0509   -9.1569   65.1675 C   0  0  2  0  0  0  0  0  0  0  0  0
  -18.1757   -9.9698   64.5680 C   0  0  0  0  0  0  0  0  0  0  0  0
  -19.0873   -9.0307   63.8338 C   0  0  0  0  0  0  0  0  0  0  0  0
  -18.2577   -7.9968   63.0014 C   0  0  0  0  0  0  0  0  0  0  0  0
  -17.6889   -7.1701   63.9920 N   0  0  0  0  0  0  0  0  0  0  0  0
  -17.3781   -7.7831   65.2421 N   0  0  0  0  0  0  0  0  0  0  0  0
  -17.4344   -5.8201   63.7195 C   0  0  0  0  0  0  0  0  0  0  0  0
  -17.0742   -5.2409   64.8101 O   0  0  0  0  0  0  0  0  0  0  0  0
  -17.5009   -4.9995   62.5437 C   0  0  2  0  0  0  0  0  0  0  0  0
  -18.5410   -3.9034   62.8139 C   0  0  0  0  0  0  0  0  0  0  0  0
  -17.6750   -5.5695   61.2357 N   0  0  0  0  0  0  0  0  0  0  0  0
  -16.5392   -5.5387   60.3166 C   0  0  0  0  0  0  0  0  0  0  0  0
  -15.5257   -5.0474   60.8193 O   0  0  0  0  0  0  0  0  0  0  0  0
  -16.5454   -6.0178   58.9566 C   0  0  2  0  0  0  0  0  0  0  0  0
  -17.1698   -7.3091   58.6092 C   0  0  0  0  0  0  0  0  0  0  0  0
  -16.6123   -8.5303   59.2645 C   0  0  0  0  0  0  0  0  0  0  0  0
  -18.6734   -7.3492   58.6807 C   0  0  0  0  0  0  0  0  0  0  0  0
  -15.2448   -5.9256   58.3244 N   0  0  0  0  0  0  0  0  0  0  0  0
  -14.0321   -6.4940   58.8912 C   0  0  0  0  0  0  0  0  0  0  0  0
  -14.1942   -7.0391   59.9815 O   0  0  0  0  0  0  0  0  0  0  0  0
  -12.7309   -6.4095   58.1824 C   0  0  2  0  0  0  0  0  0  0  0  0
  -11.7308   -7.4110   58.7101 C   0  0  0  0  0  0  0  0  0  0  0  0
  1  2  1  0
  3  2  1  6
  3  4  1  0
  4  5  1  0
  5  6  1  0
  6  7  2  0
  7  8  1  0
  8  9  1  0
  9 10  2  0
 10 11  1  0
 11 12  2  0
 12 13  1  0
 12 14  1  0
 14 15  1  1
 14 16  1  0
 16 17  1  0
 17 18  2  0
 17 19  1  0
 19 20  1  6
 20 21  1  0
 21 22  1  0
 22 23  1  0
 23 24  1  0
 23 25  1  0
 25 26  2  0
 25 27  1  0
 27 28  1  1
 27 29  1  0
 29 30  1  0
 30 31  2  0
 30 32  1  0
 32 33  1  1
 33 34  1  0
 33 35  1  0
 32 36  1  0
 36 37  1  0
 37 38  2  0
 37 39  1  0
 39 40  1  1
 39  3  1  0
 13  8  2  0
 24 19  1  0
M  CHG  1  24   1
M  END
>  <shape_align_shape_tanimoto>  (2) 
0.3987537937807431

>  <shape_align_color_tanimoto>  (2) 
0.05376511971885721

>  <metric>  (2) 
color

>  <metric_score>  (2) 
0.054

>  <template_pid>  (2) 
5TA4

>  <template_shape_score>  (2) 
0.399

>  <template_color_score>  (2) 
0.054

>  <template_combo_score>  (2) 
0.226

$$$$
5TA4_combo_pose
     RDKit          3D

 40 42  0  0  0  0  0  0  0  0999 V2000
  -12.2234   -3.9826   54.8983 C   0  0  0  0  0  0  0  0  0  0  0  0
  -12.6377   -4.7325   55.9858 O   0  0  0  0  0  0  0  0  0  0  0  0
  -11.7841   -5.8073   56.2534 C   0  0  2  0  0  0  0  0  0  0  0  0
  -12.7035   -7.0195   56.1465 C   0  0  0  0  0  0  0  0  0  0  0  0
  -12.1363   -8.3316   56.4587 C   0  0  0  0  0  0  0  0  0  0  0  0
  -13.2432   -9.3600   56.7024 C   0  0  0  0  0  0  0  0  0  0  0  0
  -13.2442   -9.9713   57.8390 C   0  0  0  0  0  0  0  0  0  0  0  0
  -14.0907  -10.9737   58.4324 C   0  0  0  0  0  0  0  0  0  0  0  0
  -13.5144  -12.2552   58.5265 C   0  0  0  0  0  0  0  0  0  0  0  0
  -14.1597  -13.2982   59.1425 C   0  0  0  0  0  0  0  0  0  0  0  0
  -15.4043  -13.0613   59.6774 C   0  0  0  0  0  0  0  0  0  0  0  0
  -16.0235  -11.8062   59.6117 C   0  0  0  0  0  0  0  0  0  0  0  0
  -15.3327  -10.8031   58.9819 C   0  0  0  0  0  0  0  0  0  0  0  0
  -17.3329  -11.6889   60.2628 C   0  0  1  0  0  0  0  0  0  0  0  0
  -17.9159  -13.0663   60.5834 C   0  0  0  0  0  0  0  0  0  0  0  0
  -17.1947  -10.9338   61.4597 O   0  0  0  0  0  0  0  0  0  0  0  0
  -17.9400   -9.8275   61.8039 C   0  0  0  0  0  0  0  0  0  0  0  0
  -18.8416   -9.5032   60.9359 O   0  0  0  0  0  0  0  0  0  0  0  0
  -17.8419   -8.9992   62.9800 C   0  0  2  0  0  0  0  0  0  0  0  0
  -17.6811   -9.5391   64.3375 C   0  0  0  0  0  0  0  0  0  0  0  0
  -17.4961   -8.4231   65.3273 C   0  0  0  0  0  0  0  0  0  0  0  0
  -17.8762   -7.0193   64.9243 C   0  0  0  0  0  0  0  0  0  0  0  0
  -18.2485   -6.9237   63.5750 N   0  0  0  0  0  0  0  0  0  0  0  0
  -19.0227   -8.0866   63.1208 N   0  0  0  0  0  0  0  0  0  0  0  0
  -17.9180   -6.0216   62.6150 C   0  0  0  0  0  0  0  0  0  0  0  0
  -18.5148   -6.2887   61.5115 O   0  0  0  0  0  0  0  0  0  0  0  0
  -17.0434   -4.8245   62.5079 C   0  0  2  0  0  0  0  0  0  0  0  0
  -17.9188   -3.6230   62.6770 C   0  0  0  0  0  0  0  0  0  0  0  0
  -16.5859   -4.9668   61.0915 N   0  0  0  0  0  0  0  0  0  0  0  0
  -15.2487   -4.7653   60.6863 C   0  0  0  0  0  0  0  0  0  0  0  0
  -14.5367   -4.1152   61.4379 O   0  0  0  0  0  0  0  0  0  0  0  0
  -14.8093   -5.3197   59.4285 C   0  0  2  0  0  0  0  0  0  0  0  0
  -15.2017   -6.8020   59.3418 C   0  0  0  0  0  0  0  0  0  0  0  0
  -14.7987   -7.6605   60.4501 C   0  0  0  0  0  0  0  0  0  0  0  0
  -16.5696   -7.0587   58.8531 C   0  0  0  0  0  0  0  0  0  0  0  0
  -13.5839   -5.0137   58.8064 N   0  0  0  0  0  0  0  0  0  0  0  0
  -12.4778   -5.8754   58.5959 C   0  0  0  0  0  0  0  0  0  0  0  0
  -12.4682   -6.9305   59.2350 O   0  0  0  0  0  0  0  0  0  0  0  0
  -11.3220   -5.6321   57.6965 C   0  0  2  0  0  0  0  0  0  0  0  0
  -10.9392   -4.1742   57.8498 C   0  0  0  0  0  0  0  0  0  0  0  0
  1  2  1  0
  3  2  1  1
  3  4  1  0
  4  5  1  0
  5  6  1  0
  6  7  2  0
  7  8  1  0
  8  9  1  0
  9 10  2  0
 10 11  1  0
 11 12  2  0
 12 13  1  0
 12 14  1  0
 14 15  1  1
 14 16  1  0
 16 17  1  0
 17 18  2  0
 17 19  1  0
 19 20  1  1
 20 21  1  0
 21 22  1  0
 22 23  1  0
 23 24  1  0
 23 25  1  0
 25 26  2  0
 25 27  1  0
 27 28  1  6
 27 29  1  0
 29 30  1  0
 30 31  2  0
 30 32  1  0
 32 33  1  1
 33 34  1  0
 33 35  1  0
 32 36  1  0
 36 37  1  0
 37 38  2  0
 37 39  1  0
 39 40  1  6
 39  3  1  0
 13  8  2  0
 24 19  1  0
M  CHG  1  24   1
M  END
>  <shape_align_shape_tanimoto>  (3) 
0.45677574313923397

>  <shape_align_color_tanimoto>  (3) 
0.020403027408065384

>  <metric>  (3) 
combo

>  <metric_score>  (3) 
0.239

>  <template_pid>  (3) 
5TA4

>  <template_shape_score>  (3) 
0.457

>  <template_color_score>  (3) 
0.020

>  <template_combo_score>  (3) 
0.239

$$$$
