5C4U_shape_pose
     RDKit          3D

 33 36  0  0  0  0  0  0  0  0999 V2000
   13.1404    1.9066   -7.8343 O   0  0  0  0  0  0  0  0  0  0  0  0
   12.5970    2.2976   -6.7374 C   0  0  0  0  0  0  0  0  0  0  0  0
   13.3012    3.0583   -5.8242 O   0  0  0  0  0  0  0  0  0  0  0  0
   11.2145    1.8780   -6.5544 C   0  0  0  0  0  0  0  0  0  0  0  0
   10.4760    2.2057   -5.4424 C   0  0  0  0  0  0  0  0  0  0  0  0
    9.1698    1.8282   -5.2378 C   0  0  0  0  0  0  0  0  0  0  0  0
    8.5102    2.1892   -4.1157 F   0  0  0  0  0  0  0  0  0  0  0  0
    8.5768    1.0662   -6.2316 C   0  0  0  0  0  0  0  0  0  0  0  0
    7.1887    0.6405   -6.0572 C   0  0  0  0  0  0  0  0  0  0  0  0
    6.0864    1.3659   -5.8377 N   0  0  0  0  0  0  0  0  0  0  0  0
    5.0102    0.5867   -5.7124 N   0  0  0  0  0  0  0  0  0  0  0  0
    3.7138    1.1110   -5.5588 C   0  0  0  0  0  0  0  0  0  0  0  0
    3.5889    2.3652   -5.7460 O   0  0  0  0  0  0  0  0  0  0  0  0
    2.5081    0.4025   -5.2198 C   0  0  0  0  0  0  0  0  0  0  0  0
    1.4949    0.3813   -6.1790 C   0  0  0  0  0  0  0  0  0  0  0  0
    1.7499    1.1013   -7.7778 Cl  0  0  0  0  0  0  0  0  0  0  0  0
    0.2600   -0.1924   -5.9472 C   0  0  0  0  0  0  0  0  0  0  0  0
    0.0669   -0.7539   -4.7060 C   0  0  0  0  0  0  0  0  0  0  0  0
    1.0166   -0.7681   -3.7129 C   0  0  0  0  0  0  0  0  0  0  0  0
    2.2651   -0.1735   -3.9795 C   0  0  0  0  0  0  0  0  0  0  0  0
    3.2068   -0.1356   -2.8485 C   0  0  0  0  0  0  0  0  0  0  0  0
    3.4178    1.2441   -2.6141 F   0  0  0  0  0  0  0  0  0  0  0  0
    4.4078   -0.6897   -3.0120 F   0  0  0  0  0  0  0  0  0  0  0  0
    2.5945   -0.6022   -1.6803 F   0  0  0  0  0  0  0  0  0  0  0  0
    5.4567   -0.6791   -5.8625 C   0  0  0  0  0  0  0  0  0  0  0  0
    4.7636   -1.8984   -5.8424 C   0  0  0  0  0  0  0  0  0  0  0  0
    5.5325   -3.0196   -6.0462 C   0  0  0  0  0  0  0  0  0  0  0  0
    6.8861   -3.0170   -6.2597 C   0  0  0  0  0  0  0  0  0  0  0  0
    7.5348   -1.8127   -6.2751 N   0  0  0  0  0  0  0  0  0  0  0  0
    6.8186   -0.6880   -6.0803 C   0  0  0  0  0  0  0  0  0  0  0  0
    9.2594    0.6944   -7.3857 C   0  0  0  0  0  0  0  0  0  0  0  0
   10.5893    1.1142   -7.5289 C   0  0  0  0  0  0  0  0  0  0  0  0
   11.2414    0.7224   -8.6985 O   0  0  0  0  0  0  0  0  0  0  0  0
  1  2  2  0
  2  3  1  0
  2  4  1  0
  4  5  2  0
  5  6  1  0
  6  7  1  0
  6  8  2  0
  8  9  1  0
  9 10  2  0
 10 11  1  0
 11 12  1  0
 12 13  2  0
 12 14  1  0
 14 15  2  0
 15 16  1  0
 15 17  1  0
 17 18  2  0
 18 19  1  0
 19 20  2  0
 20 21  1  0
 21 22  1  0
 21 23  1  0
 21 24  1  0
 11 25  1  0
 25 26  2  0
 26 27  1  0
 27 28  2  0
 28 29  1  0
 29 30  2  0
  8 31  1  0
 31 32  2  0
 32 33  1  0
 32  4  1  0
 30  9  1  0
 20 14  1  0
 30 25  1  0
M  CHG  1   3  -1
M  END
>  <shape_align_shape_tanimoto>  (1) 
0.6352295828995661

>  <shape_align_color_tanimoto>  (1) 
0.04774975441940868

>  <metric>  (1) 
shape

>  <metric_score>  (1) 
0.635

>  <template_pid>  (1) 
5C4U

>  <template_shape_score>  (1) 
0.635

>  <template_color_score>  (1) 
0.048

>  <template_combo_score>  (1) 
0.341

$$$$
5C4U_color_pose
     RDKit          3D

 33 36  0  0  0  0  0  0  0  0999 V2000
    0.9934    0.4426   -4.9070 O   0  0  0  0  0  0  0  0  0  0  0  0
    1.8746   -0.4670   -5.0161 C   0  0  0  0  0  0  0  0  0  0  0  0
    1.5196   -1.8262   -4.8946 O   0  0  0  0  0  0  0  0  0  0  0  0
    3.2773   -0.1259   -5.2690 C   0  0  0  0  0  0  0  0  0  0  0  0
    4.1983   -1.1251   -5.4450 C   0  0  0  0  0  0  0  0  0  0  0  0
    5.4974   -0.7429   -5.7002 C   0  0  0  0  0  0  0  0  0  0  0  0
    6.4190   -1.7094   -5.8715 F   0  0  0  0  0  0  0  0  0  0  0  0
    5.8622    0.5973   -5.7768 C   0  0  0  0  0  0  0  0  0  0  0  0
    7.2681    0.8572   -6.0914 C   0  0  0  0  0  0  0  0  0  0  0  0
    7.8651    0.4927   -7.2256 N   0  0  0  0  0  0  0  0  0  0  0  0
    9.1405    0.7869   -7.2900 N   0  0  0  0  0  0  0  0  0  0  0  0
   10.0790    0.5941   -8.2992 C   0  0  0  0  0  0  0  0  0  0  0  0
   11.2765    1.0814   -8.0178 O   0  0  0  0  0  0  0  0  0  0  0  0
   10.0429   -0.0049   -9.5868 C   0  0  0  0  0  0  0  0  0  0  0  0
   10.6668    0.7758  -10.6007 C   0  0  0  0  0  0  0  0  0  0  0  0
   11.2779    2.3855  -10.2097 Cl  0  0  0  0  0  0  0  0  0  0  0  0
   10.8225    0.3577  -11.8866 C   0  0  0  0  0  0  0  0  0  0  0  0
   10.3588   -0.8759  -12.2382 C   0  0  0  0  0  0  0  0  0  0  0  0
    9.7567   -1.6366  -11.2721 C   0  0  0  0  0  0  0  0  0  0  0  0
    9.5866   -1.2354   -9.9536 C   0  0  0  0  0  0  0  0  0  0  0  0
    8.9448   -2.2239   -9.0597 C   0  0  0  0  0  0  0  0  0  0  0  0
    7.7617   -1.9137   -8.5035 F   0  0  0  0  0  0  0  0  0  0  0  0
    8.7012   -3.4142   -9.7784 F   0  0  0  0  0  0  0  0  0  0  0  0
    9.8870   -2.6602   -8.0904 F   0  0  0  0  0  0  0  0  0  0  0  0
    9.3999    1.3989   -6.0915 C   0  0  0  0  0  0  0  0  0  0  0  0
   10.5269    1.9304   -5.5029 C   0  0  0  0  0  0  0  0  0  0  0  0
   10.5097    2.4910   -4.2187 C   0  0  0  0  0  0  0  0  0  0  0  0
    9.2890    2.4770   -3.5811 C   0  0  0  0  0  0  0  0  0  0  0  0
    8.1663    1.9715   -4.1111 N   0  0  0  0  0  0  0  0  0  0  0  0
    8.2474    1.4522   -5.3336 C   0  0  0  0  0  0  0  0  0  0  0  0
    4.9338    1.6178   -5.5982 C   0  0  0  0  0  0  0  0  0  0  0  0
    3.6330    1.2247   -5.3424 C   0  0  0  0  0  0  0  0  0  0  0  0
    2.6673    2.2317   -5.1560 O   0  0  0  0  0  0  0  0  0  0  0  0
  1  2  2  0
  2  3  1  0
  2  4  1  0
  4  5  2  0
  5  6  1  0
  6  7  1  0
  6  8  2  0
  8  9  1  0
  9 10  2  0
 10 11  1  0
 11 12  1  0
 12 13  2  0
 12 14  1  0
 14 15  2  0
 15 16  1  0
 15 17  1  0
 17 18  2  0
 18 19  1  0
 19 20  2  0
 20 21  1  0
 21 22  1  0
 21 23  1  0
 21 24  1  0
 11 25  1  0
 25 26  2  0
 26 27  1  0
 27 28  2  0
 28 29  1  0
 29 30  2  0
  8 31  1  0
 31 32  2  0
 32 33  1  0
 32  4  1  0
 30  9  1  0
 20 14  1  0
 30 25  1  0
M  CHG  1   3  -1
M  END
>  <shape_align_shape_tanimoto>  (2) 
0.50582849339422165

>  <shape_align_color_tanimoto>  (2) 
0.10465878319246215

>  <metric>  (2) 
color

>  <metric_score>  (2) 
0.105

>  <template_pid>  (2) 
5C4U

>  <template_shape_score>  (2) 
0.506

>  <template_color_score>  (2) 
0.105

>  <template_combo_score>  (2) 
0.305

$$$$
5C4U_combo_pose
     RDKit          3D

 33 36  0  0  0  0  0  0  0  0999 V2000
   13.1404    1.9066   -7.8343 O   0  0  0  0  0  0  0  0  0  0  0  0
   12.5970    2.2976   -6.7374 C   0  0  0  0  0  0  0  0  0  0  0  0
   13.3012    3.0583   -5.8242 O   0  0  0  0  0  0  0  0  0  0  0  0
   11.2145    1.8780   -6.5544 C   0  0  0  0  0  0  0  0  0  0  0  0
   10.4760    2.2057   -5.4424 C   0  0  0  0  0  0  0  0  0  0  0  0
    9.1698    1.8282   -5.2378 C   0  0  0  0  0  0  0  0  0  0  0  0
    8.5102    2.1892   -4.1157 F   0  0  0  0  0  0  0  0  0  0  0  0
    8.5768    1.0662   -6.2316 C   0  0  0  0  0  0  0  0  0  0  0  0
    7.1887    0.6405   -6.0572 C   0  0  0  0  0  0  0  0  0  0  0  0
    6.0864    1.3659   -5.8377 N   0  0  0  0  0  0  0  0  0  0  0  0
    5.0102    0.5867   -5.7124 N   0  0  0  0  0  0  0  0  0  0  0  0
    3.7138    1.1110   -5.5588 C   0  0  0  0  0  0  0  0  0  0  0  0
    3.5889    2.3652   -5.7460 O   0  0  0  0  0  0  0  0  0  0  0  0
    2.5081    0.4025   -5.2198 C   0  0  0  0  0  0  0  0  0  0  0  0
    1.4949    0.3813   -6.1790 C   0  0  0  0  0  0  0  0  0  0  0  0
    1.7499    1.1013   -7.7778 Cl  0  0  0  0  0  0  0  0  0  0  0  0
    0.2600   -0.1924   -5.9472 C   0  0  0  0  0  0  0  0  0  0  0  0
    0.0669   -0.7539   -4.7060 C   0  0  0  0  0  0  0  0  0  0  0  0
    1.0166   -0.7681   -3.7129 C   0  0  0  0  0  0  0  0  0  0  0  0
    2.2651   -0.1735   -3.9795 C   0  0  0  0  0  0  0  0  0  0  0  0
    3.2068   -0.1356   -2.8485 C   0  0  0  0  0  0  0  0  0  0  0  0
    3.4178    1.2441   -2.6141 F   0  0  0  0  0  0  0  0  0  0  0  0
    4.4078   -0.6897   -3.0120 F   0  0  0  0  0  0  0  0  0  0  0  0
    2.5945   -0.6022   -1.6803 F   0  0  0  0  0  0  0  0  0  0  0  0
    5.4567   -0.6791   -5.8625 C   0  0  0  0  0  0  0  0  0  0  0  0
    4.7636   -1.8984   -5.8424 C   0  0  0  0  0  0  0  0  0  0  0  0
    5.5325   -3.0196   -6.0462 C   0  0  0  0  0  0  0  0  0  0  0  0
    6.8861   -3.0170   -6.2597 C   0  0  0  0  0  0  0  0  0  0  0  0
    7.5348   -1.8127   -6.2751 N   0  0  0  0  0  0  0  0  0  0  0  0
    6.8186   -0.6880   -6.0803 C   0  0  0  0  0  0  0  0  0  0  0  0
    9.2594    0.6944   -7.3857 C   0  0  0  0  0  0  0  0  0  0  0  0
   10.5893    1.1142   -7.5289 C   0  0  0  0  0  0  0  0  0  0  0  0
   11.2414    0.7224   -8.6985 O   0  0  0  0  0  0  0  0  0  0  0  0
  1  2  2  0
  2  3  1  0
  2  4  1  0
  4  5  2  0
  5  6  1  0
  6  7  1  0
  6  8  2  0
  8  9  1  0
  9 10  2  0
 10 11  1  0
 11 12  1  0
 12 13  2  0
 12 14  1  0
 14 15  2  0
 15 16  1  0
 15 17  1  0
 17 18  2  0
 18 19  1  0
 19 20  2  0
 20 21  1  0
 21 22  1  0
 21 23  1  0
 21 24  1  0
 11 25  1  0
 25 26  2  0
 26 27  1  0
 27 28  2  0
 28 29  1  0
 29 30  2  0
  8 31  1  0
 31 32  2  0
 32 33  1  0
 32  4  1  0
 30  9  1  0
 20 14  1  0
 30 25  1  0
M  CHG  1   3  -1
M  END
>  <shape_align_shape_tanimoto>  (3) 
0.6352295828995661

>  <shape_align_color_tanimoto>  (3) 
0.04774975441940868

>  <metric>  (3) 
combo

>  <metric_score>  (3) 
0.341

>  <template_pid>  (3) 
5C4U

>  <template_shape_score>  (3) 
0.635

>  <template_color_score>  (3) 
0.048

>  <template_combo_score>  (3) 
0.341

$$$$
