2JC0_shape_pose
     RDKit          3D

 32 34  0  0  0  0  0  0  0  0999 V2000
  -21.2114   -6.0261   31.2634 C   0  0  0  0  0  0  0  0  0  0  0  0
  -21.2863   -7.1434   30.2564 C   0  0  0  0  0  0  0  0  0  0  0  0
  -20.2488   -6.9253   29.1885 C   0  0  0  0  0  0  0  0  0  0  0  0
  -22.6053   -7.6021   29.8822 C   0  0  0  0  0  0  0  0  0  0  0  0
  -23.6756   -6.8152   29.2498 C   0  0  1  0  0  0  0  0  0  0  0  0
  -24.1761   -5.6400   30.0050 C   0  0  0  0  0  0  0  0  0  0  0  0
  -23.4563   -4.5802   30.1181 O   0  0  0  0  0  0  0  0  0  0  0  0
  -25.4038   -5.5681   30.6332 O   0  0  0  0  0  0  0  0  0  0  0  0
  -23.2185   -6.2378   27.9015 C   0  0  0  0  0  0  0  0  0  0  0  0
  -23.8933   -7.1278   26.8709 C   0  0  2  0  0  0  0  0  0  0  0  0
  -23.8078   -6.6304   25.5151 C   0  0  0  0  0  0  0  0  0  0  0  0
  -23.5565   -5.4358   25.1710 O   0  0  0  0  0  0  0  0  0  0  0  0
  -24.0147   -7.5182   24.4556 O   0  0  0  0  0  0  0  0  0  0  0  0
  -25.1827   -7.4496   27.4731 C   0  0  2  0  0  0  0  0  0  0  0  0
  -26.3187   -6.5718   27.4043 C   0  0  0  0  0  0  0  0  0  0  0  0
  -26.7352   -5.5213   26.6942 C   0  0  0  0  0  0  0  0  0  0  0  0
  -27.9335   -4.9719   26.9594 C   0  0  0  0  0  0  0  0  0  0  0  0
  -28.6777   -5.5243   27.9603 C   0  0  0  0  0  0  0  0  0  0  0  0
  -27.6393   -6.9393   28.6080 S   0  0  0  0  0  0  0  0  0  0  0  0
  -24.7468   -7.7335   28.8658 N   0  0  0  0  0  0  0  0  0  0  0  0
  -25.3748   -8.7860   29.5761 C   0  0  0  0  0  0  0  0  0  0  0  0
  -26.2913   -9.4010   28.8999 O   0  0  0  0  0  0  0  0  0  0  0  0
  -25.1522   -9.2595   30.8964 C   0  0  0  0  0  0  0  0  0  0  0  0
  -25.5691   -8.6809   32.0685 C   0  0  0  0  0  0  0  0  0  0  0  0
  -25.3350   -9.1973   33.3244 C   0  0  0  0  0  0  0  0  0  0  0  0
  -24.6242  -10.3912   33.3862 C   0  0  0  0  0  0  0  0  0  0  0  0
  -24.3818  -10.9453   34.7637 C   0  0  0  0  0  0  0  0  0  0  0  0
  -25.6064  -10.9657   35.4171 F   0  0  0  0  0  0  0  0  0  0  0  0
  -23.4686  -10.1297   35.3760 F   0  0  0  0  0  0  0  0  0  0  0  0
  -23.8623  -12.2236   34.6940 F   0  0  0  0  0  0  0  0  0  0  0  0
  -24.1800  -11.0208   32.2566 C   0  0  0  0  0  0  0  0  0  0  0  0
  -24.4353  -10.4703   31.0201 C   0  0  0  0  0  0  0  0  0  0  0  0
  1  2  1  0
  2  3  1  0
  2  4  1  0
  5  4  1  1
  5  6  1  0
  6  7  2  0
  6  8  1  0
  5  9  1  0
  9 10  1  0
 10 11  1  6
 11 12  2  0
 11 13  1  0
 10 14  1  0
 14 15  1  1
 15 16  2  0
 16 17  1  0
 17 18  2  0
 18 19  1  0
 14 20  1  0
 20 21  1  0
 21 22  2  0
 21 23  1  0
 23 24  2  0
 24 25  1  0
 25 26  2  0
 26 27  1  0
 27 28  1  0
 27 29  1  0
 27 30  1  0
 26 31  1  0
 31 32  2  0
 20  5  1  0
 32 23  1  0
 19 15  1  0
M  CHG  2   8  -1  13  -1
M  END
>  <shape_align_shape_tanimoto>  (1) 
0.60655656437608196

>  <shape_align_color_tanimoto>  (1) 
0.10697124387342709

>  <metric>  (1) 
shape

>  <metric_score>  (1) 
0.607

>  <template_pid>  (1) 
2JC0

>  <template_shape_score>  (1) 
0.607

>  <template_color_score>  (1) 
0.107

>  <template_combo_score>  (1) 
0.357

$$$$
2JC0_color_pose
     RDKit          3D

 32 34  0  0  0  0  0  0  0  0999 V2000
  -22.8547   -7.0895   32.0239 C   0  0  0  0  0  0  0  0  0  0  0  0
  -21.8704   -7.1384   30.9352 C   0  0  0  0  0  0  0  0  0  0  0  0
  -20.6221   -7.8518   31.5040 C   0  0  0  0  0  0  0  0  0  0  0  0
  -22.1987   -7.8164   29.6474 C   0  0  0  0  0  0  0  0  0  0  0  0
  -23.4087   -7.2636   28.9185 C   0  0  1  0  0  0  0  0  0  0  0  0
  -23.2447   -5.8064   28.7368 C   0  0  0  0  0  0  0  0  0  0  0  0
  -22.1803   -5.3989   28.1570 O   0  0  0  0  0  0  0  0  0  0  0  0
  -24.1305   -4.8341   29.1418 O   0  0  0  0  0  0  0  0  0  0  0  0
  -23.0950   -7.7762   27.4283 C   0  0  0  0  0  0  0  0  0  0  0  0
  -24.3824   -7.3094   26.7558 C   0  0  2  0  0  0  0  0  0  0  0  0
  -24.1308   -6.0642   26.0704 C   0  0  0  0  0  0  0  0  0  0  0  0
  -24.5666   -4.9290   26.2466 O   0  0  0  0  0  0  0  0  0  0  0  0
  -23.1977   -6.1510   24.9749 O   0  0  0  0  0  0  0  0  0  0  0  0
  -25.3747   -7.5197   27.7726 C   0  0  2  0  0  0  0  0  0  0  0  0
  -26.3982   -6.5485   27.9571 C   0  0  0  0  0  0  0  0  0  0  0  0
  -27.1398   -5.7489   27.1164 C   0  0  0  0  0  0  0  0  0  0  0  0
  -28.0522   -4.9230   27.6260 C   0  0  0  0  0  0  0  0  0  0  0  0
  -28.2715   -4.8487   28.9534 C   0  0  0  0  0  0  0  0  0  0  0  0
  -27.0468   -6.1026   29.6663 S   0  0  0  0  0  0  0  0  0  0  0  0
  -24.6604   -7.8419   29.0750 N   0  0  0  0  0  0  0  0  0  0  0  0
  -25.4050   -8.6203   29.9833 C   0  0  0  0  0  0  0  0  0  0  0  0
  -26.6203   -8.8796   29.5198 O   0  0  0  0  0  0  0  0  0  0  0  0
  -25.1479   -9.1826   31.2515 C   0  0  0  0  0  0  0  0  0  0  0  0
  -25.7435   -8.8083   32.4537 C   0  0  0  0  0  0  0  0  0  0  0  0
  -25.4116   -9.4572   33.6395 C   0  0  0  0  0  0  0  0  0  0  0  0
  -24.5040  -10.4798   33.7093 C   0  0  0  0  0  0  0  0  0  0  0  0
  -24.1397  -11.1794   34.9440 C   0  0  0  0  0  0  0  0  0  0  0  0
  -25.2536  -11.7045   35.5669 F   0  0  0  0  0  0  0  0  0  0  0  0
  -23.5077  -10.3953   35.8841 F   0  0  0  0  0  0  0  0  0  0  0  0
  -23.3064  -12.2689   34.6871 F   0  0  0  0  0  0  0  0  0  0  0  0
  -23.9052  -10.8588   32.5077 C   0  0  0  0  0  0  0  0  0  0  0  0
  -24.2212  -10.2296   31.3317 C   0  0  0  0  0  0  0  0  0  0  0  0
  1  2  1  0
  2  3  1  0
  2  4  1  0
  5  4  1  1
  5  6  1  0
  6  7  2  0
  6  8  1  0
  5  9  1  0
  9 10  1  0
 10 11  1  1
 11 12  2  0
 11 13  1  0
 10 14  1  0
 14 15  1  1
 15 16  2  0
 16 17  1  0
 17 18  2  0
 18 19  1  0
 14 20  1  0
 20 21  1  0
 21 22  2  0
 21 23  1  0
 23 24  2  0
 24 25  1  0
 25 26  2  0
 26 27  1  0
 27 28  1  0
 27 29  1  0
 27 30  1  0
 26 31  1  0
 31 32  2  0
 20  5  1  0
 32 23  1  0
 19 15  1  0
M  CHG  2   8  -1  13  -1
M  END
>  <shape_align_shape_tanimoto>  (2) 
0.54327610576277674

>  <shape_align_color_tanimoto>  (2) 
0.16691069434005024

>  <metric>  (2) 
color

>  <metric_score>  (2) 
0.167

>  <template_pid>  (2) 
2JC0

>  <template_shape_score>  (2) 
0.543

>  <template_color_score>  (2) 
0.167

>  <template_combo_score>  (2) 
0.355

$$$$
2JC0_combo_pose
     RDKit          3D

 32 34  0  0  0  0  0  0  0  0999 V2000
  -20.7370   -7.0947   29.5650 C   0  0  0  0  0  0  0  0  0  0  0  0
  -21.8379   -7.4498   30.4991 C   0  0  0  0  0  0  0  0  0  0  0  0
  -21.2318   -7.2633   31.9185 C   0  0  0  0  0  0  0  0  0  0  0  0
  -23.0794   -6.6866   30.5018 C   0  0  0  0  0  0  0  0  0  0  0  0
  -23.9687   -6.6055   29.3047 C   0  0  1  0  0  0  0  0  0  0  0  0
  -25.1353   -5.7380   29.7924 C   0  0  0  0  0  0  0  0  0  0  0  0
  -26.3158   -6.0911   29.7244 O   0  0  0  0  0  0  0  0  0  0  0  0
  -24.7903   -4.4924   30.3336 O   0  0  0  0  0  0  0  0  0  0  0  0
  -23.3696   -5.9038   28.1358 C   0  0  0  0  0  0  0  0  0  0  0  0
  -23.4656   -6.8814   27.0010 C   0  0  2  0  0  0  0  0  0  0  0  0
  -23.5394   -6.2008   25.6858 C   0  0  0  0  0  0  0  0  0  0  0  0
  -23.3788   -6.7827   24.5854 O   0  0  0  0  0  0  0  0  0  0  0  0
  -23.8063   -4.8127   25.7165 O   0  0  0  0  0  0  0  0  0  0  0  0
  -24.5500   -7.8328   27.3152 C   0  0  2  0  0  0  0  0  0  0  0  0
  -25.8742   -7.5152   26.8881 C   0  0  0  0  0  0  0  0  0  0  0  0
  -27.1485   -7.8138   27.2142 C   0  0  0  0  0  0  0  0  0  0  0  0
  -28.1850   -7.3248   26.5406 C   0  0  0  0  0  0  0  0  0  0  0  0
  -27.8810   -6.4645   25.4515 C   0  0  0  0  0  0  0  0  0  0  0  0
  -26.0496   -6.4027   25.4552 S   0  0  0  0  0  0  0  0  0  0  0  0
  -24.4644   -7.8442   28.7995 N   0  0  0  0  0  0  0  0  0  0  0  0
  -24.8516   -9.0604   29.4573 C   0  0  0  0  0  0  0  0  0  0  0  0
  -25.2040   -9.9882   28.6229 O   0  0  0  0  0  0  0  0  0  0  0  0
  -24.9067   -9.3955   30.8254 C   0  0  0  0  0  0  0  0  0  0  0  0
  -25.7129   -8.8472   31.7977 C   0  0  0  0  0  0  0  0  0  0  0  0
  -25.6966   -9.2741   33.1229 C   0  0  0  0  0  0  0  0  0  0  0  0
  -24.8511  -10.2897   33.5276 C   0  0  0  0  0  0  0  0  0  0  0  0
  -24.8730  -10.7053   34.9505 C   0  0  0  0  0  0  0  0  0  0  0  0
  -26.0838  -11.3480   35.1873 F   0  0  0  0  0  0  0  0  0  0  0  0
  -24.7833   -9.5981   35.7738 F   0  0  0  0  0  0  0  0  0  0  0  0
  -23.8280  -11.5901   35.2210 F   0  0  0  0  0  0  0  0  0  0  0  0
  -24.0439  -10.8459   32.5772 C   0  0  0  0  0  0  0  0  0  0  0  0
  -24.0610  -10.4245   31.2734 C   0  0  0  0  0  0  0  0  0  0  0  0
  1  2  1  0
  2  3  1  0
  2  4  1  0
  5  4  1  1
  5  6  1  0
  6  7  2  0
  6  8  1  0
  5  9  1  0
  9 10  1  0
 10 11  1  6
 11 12  2  0
 11 13  1  0
 10 14  1  0
 14 15  1  1
 15 16  2  0
 16 17  1  0
 17 18  2  0
 18 19  1  0
 14 20  1  0
 20 21  1  0
 21 22  2  0
 21 23  1  0
 23 24  2  0
 24 25  1  0
 25 26  2  0
 26 27  1  0
 27 28  1  0
 27 29  1  0
 27 30  1  0
 26 31  1  0
 31 32  2  0
 20  5  1  0
 32 23  1  0
 19 15  1  0
M  CHG  2   8  -1  13  -1
M  END
>  <shape_align_shape_tanimoto>  (3) 
0.58370592221726436

>  <shape_align_color_tanimoto>  (3) 
0.14865431282349117

>  <metric>  (3) 
combo

>  <metric_score>  (3) 
0.366

>  <template_pid>  (3) 
2JC0

>  <template_shape_score>  (3) 
0.584

>  <template_color_score>  (3) 
0.149

>  <template_combo_score>  (3) 
0.366

$$$$
