6A6K_shape_pose
     RDKit          3D

 34 37  0  0  0  0  0  0  0  0999 V2000
  -11.8023  -10.6577  -29.5020 C   0  0  0  0  0  0  0  0  0  0  0  0
  -10.8270  -10.5706  -30.6600 C   0  0  0  0  0  0  0  0  0  0  0  0
  -11.6534  -10.6738  -31.9244 C   0  0  0  0  0  0  0  0  0  0  0  0
   -9.9153   -9.4823  -30.6074 N   0  0  0  0  0  0  0  0  0  0  0  0
  -10.0484   -8.4921  -31.6534 C   0  0  0  0  0  0  0  0  0  0  0  0
  -11.1105   -7.4550  -31.3981 C   0  0  0  0  0  0  0  0  0  0  0  0
  -11.1963   -7.1836  -29.9443 N   0  0  0  0  0  0  0  0  0  0  0  0
  -12.3938   -6.7182  -29.3470 C   0  0  0  0  0  0  0  0  0  0  0  0
  -13.5005   -6.3589  -30.0931 C   0  0  0  0  0  0  0  0  0  0  0  0
  -14.6805   -5.9092  -29.4843 C   0  0  0  0  0  0  0  0  0  0  0  0
  -14.7940   -5.8036  -28.1258 C   0  0  0  0  0  0  0  0  0  0  0  0
  -15.9442   -5.3157  -27.3951 C   0  0  0  0  0  0  0  0  0  0  0  0
  -16.3834   -6.0932  -26.3945 C   0  0  0  0  0  0  0  0  0  0  0  0
  -17.5704   -5.7061  -25.5530 C   0  0  0  0  0  0  0  0  0  0  0  0
  -18.5206   -6.9145  -25.7138 C   0  0  0  0  0  0  0  0  0  0  0  0
  -18.8814   -7.0818  -27.1718 C   0  0  0  0  0  0  0  0  0  0  0  0
  -19.7519   -8.1750  -27.3592 O   0  0  0  0  0  0  0  0  0  0  0  0
  -15.7917   -7.3813  -26.0642 C   0  0  0  0  0  0  0  0  0  0  0  0
  -15.4354   -8.3420  -26.9508 C   0  0  0  0  0  0  0  0  0  0  0  0
  -14.8618   -9.5487  -26.5531 C   0  0  0  0  0  0  0  0  0  0  0  0
  -14.6357   -9.8026  -25.2031 C   0  0  0  0  0  0  0  0  0  0  0  0
  -14.9972   -8.8257  -24.2874 C   0  0  0  0  0  0  0  0  0  0  0  0
  -15.5668   -7.6344  -24.7167 C   0  0  0  0  0  0  0  0  0  0  0  0
  -16.5747   -4.0249  -27.6205 C   0  0  0  0  0  0  0  0  0  0  0  0
  -17.0879   -3.5550  -28.7722 C   0  0  0  0  0  0  0  0  0  0  0  0
  -17.6217   -2.2614  -28.8531 C   0  0  0  0  0  0  0  0  0  0  0  0
  -17.6421   -1.4207  -27.7563 C   0  0  0  0  0  0  0  0  0  0  0  0
  -17.1187   -1.8982  -26.5781 C   0  0  0  0  0  0  0  0  0  0  0  0
  -17.1378   -1.0579  -25.4752 O   0  0  0  0  0  0  0  0  0  0  0  0
  -16.6046   -3.1540  -26.5146 C   0  0  0  0  0  0  0  0  0  0  0  0
  -13.6832   -6.1638  -27.3777 C   0  0  0  0  0  0  0  0  0  0  0  0
  -12.5064   -6.6129  -27.9835 C   0  0  0  0  0  0  0  0  0  0  0  0
   -9.9680   -7.4313  -29.2279 C   0  0  0  0  0  0  0  0  0  0  0  0
   -9.7184   -8.9218  -29.2918 C   0  0  0  0  0  0  0  0  0  0  0  0
  1  2  1  0
  2  3  1  0
  2  4  1  0
  4  5  1  0
  5  6  1  0
  6  7  1  0
  7  8  1  0
  8  9  2  0
  9 10  1  0
 10 11  2  0
 11 12  1  0
 12 13  2  0
 13 14  1  0
 14 15  1  0
 15 16  1  0
 16 17  1  0
 13 18  1  0
 18 19  2  0
 19 20  1  0
 20 21  2  0
 21 22  1  0
 22 23  2  0
 12 24  1  0
 24 25  2  0
 25 26  1  0
 26 27  2  0
 27 28  1  0
 28 29  1  0
 28 30  2  0
 11 31  1  0
 31 32  2  0
  7 33  1  0
 33 34  1  0
 34  4  1  0
 32  8  1  0
 23 18  1  0
 30 24  1  0
M  CHG  1   4   1
M  END
>  <shape_align_shape_tanimoto>  (1) 
0.36352419447428658

>  <shape_align_color_tanimoto>  (1) 
2.3857638830588027e-05

>  <metric>  (1) 
shape

>  <metric_score>  (1) 
0.364

>  <template_pid>  (1) 
6A6K

>  <template_shape_score>  (1) 
0.364

>  <template_color_score>  (1) 
0.000

>  <template_combo_score>  (1) 
0.182

$$$$
6A6K_color_pose
     RDKit          3D

 34 37  0  0  0  0  0  0  0  0999 V2000
  -12.8797  -12.2624  -28.3849 C   0  0  0  0  0  0  0  0  0  0  0  0
  -12.5761  -11.5734  -27.0798 C   0  0  0  0  0  0  0  0  0  0  0  0
  -11.1165  -11.1866  -27.0176 C   0  0  0  0  0  0  0  0  0  0  0  0
  -13.4512  -10.4356  -26.8814 N   0  0  0  0  0  0  0  0  0  0  0  0
  -14.7903  -10.9507  -26.6792 C   0  0  0  0  0  0  0  0  0  0  0  0
  -15.8076   -9.8392  -26.5324 C   0  0  0  0  0  0  0  0  0  0  0  0
  -15.1826   -8.6263  -26.0192 N   0  0  0  0  0  0  0  0  0  0  0  0
  -15.6228   -7.3217  -26.3706 C   0  0  0  0  0  0  0  0  0  0  0  0
  -15.0177   -6.7248  -27.4581 C   0  0  0  0  0  0  0  0  0  0  0  0
  -15.3994   -5.4435  -27.8553 C   0  0  0  0  0  0  0  0  0  0  0  0
  -16.3916   -4.7478  -27.1656 C   0  0  0  0  0  0  0  0  0  0  0  0
  -16.8043   -3.3982  -27.6220 C   0  0  0  0  0  0  0  0  0  0  0  0
  -16.9641   -2.3951  -26.7816 C   0  0  0  0  0  0  0  0  0  0  0  0
  -17.3879   -1.0371  -27.1982 C   0  0  0  0  0  0  0  0  0  0  0  0
  -18.7199   -0.9887  -27.8849 C   0  0  0  0  0  0  0  0  0  0  0  0
  -19.8568   -1.5135  -27.0107 C   0  0  0  0  0  0  0  0  0  0  0  0
  -19.5594   -2.8358  -26.7025 O   0  0  0  0  0  0  0  0  0  0  0  0
  -16.6351   -2.6073  -25.3557 C   0  0  0  0  0  0  0  0  0  0  0  0
  -17.4436   -2.1783  -24.3326 C   0  0  0  0  0  0  0  0  0  0  0  0
  -17.1104   -2.3579  -23.0028 C   0  0  0  0  0  0  0  0  0  0  0  0
  -15.9360   -2.9833  -22.6602 C   0  0  0  0  0  0  0  0  0  0  0  0
  -15.1129   -3.4195  -23.6582 C   0  0  0  0  0  0  0  0  0  0  0  0
  -15.4494   -3.2385  -24.9793 C   0  0  0  0  0  0  0  0  0  0  0  0
  -16.9425   -3.2751  -29.0692 C   0  0  0  0  0  0  0  0  0  0  0  0
  -16.2515   -2.3847  -29.8500 C   0  0  0  0  0  0  0  0  0  0  0  0
  -16.4696   -2.3289  -31.2023 C   0  0  0  0  0  0  0  0  0  0  0  0
  -17.3852   -3.1677  -31.7943 C   0  0  0  0  0  0  0  0  0  0  0  0
  -18.1103   -4.0896  -31.0386 C   0  0  0  0  0  0  0  0  0  0  0  0
  -19.0116   -4.9053  -31.6627 O   0  0  0  0  0  0  0  0  0  0  0  0
  -17.8476   -4.0978  -29.6857 C   0  0  0  0  0  0  0  0  0  0  0  0
  -16.9870   -5.3584  -26.0801 C   0  0  0  0  0  0  0  0  0  0  0  0
  -16.5884   -6.6366  -25.7046 C   0  0  0  0  0  0  0  0  0  0  0  0
  -14.0656   -8.8146  -25.1112 C   0  0  0  0  0  0  0  0  0  0  0  0
  -12.9841   -9.5360  -25.8810 C   0  0  0  0  0  0  0  0  0  0  0  0
  1  2  1  0
  2  3  1  0
  2  4  1  0
  4  5  1  0
  5  6  1  0
  6  7  1  0
  7  8  1  0
  8  9  2  0
  9 10  1  0
 10 11  2  0
 11 12  1  0
 12 13  2  0
 13 14  1  0
 14 15  1  0
 15 16  1  0
 16 17  1  0
 13 18  1  0
 18 19  2  0
 19 20  1  0
 20 21  2  0
 21 22  1  0
 22 23  2  0
 12 24  1  0
 24 25  2  0
 25 26  1  0
 26 27  2  0
 27 28  1  0
 28 29  1  0
 28 30  2  0
 11 31  1  0
 31 32  2  0
  7 33  1  0
 33 34  1  0
 34  4  1  0
 32  8  1  0
 23 18  1  0
 30 24  1  0
M  CHG  1   4   1
M  END
>  <shape_align_shape_tanimoto>  (2) 
0.34052932362184801

>  <shape_align_color_tanimoto>  (2) 
0.076306502198434253

>  <metric>  (2) 
color

>  <metric_score>  (2) 
0.076

>  <template_pid>  (2) 
6A6K

>  <template_shape_score>  (2) 
0.341

>  <template_color_score>  (2) 
0.076

>  <template_combo_score>  (2) 
0.208

$$$$
6A6K_combo_pose
     RDKit          3D

 34 37  0  0  0  0  0  0  0  0999 V2000
  -15.7451  -10.9532  -29.3674 C   0  0  0  0  0  0  0  0  0  0  0  0
  -16.3395  -11.2092  -28.0095 C   0  0  0  0  0  0  0  0  0  0  0  0
  -17.5181  -10.3142  -27.8525 C   0  0  0  0  0  0  0  0  0  0  0  0
  -15.3666  -11.1364  -26.9249 N   0  0  0  0  0  0  0  0  0  0  0  0
  -15.9893  -10.9382  -25.6647 C   0  0  0  0  0  0  0  0  0  0  0  0
  -15.9030   -9.5628  -25.0530 C   0  0  0  0  0  0  0  0  0  0  0  0
  -15.0946   -8.6791  -25.9120 N   0  0  0  0  0  0  0  0  0  0  0  0
  -15.4995   -7.3997  -26.3249 C   0  0  0  0  0  0  0  0  0  0  0  0
  -14.7564   -6.6966  -27.2790 C   0  0  0  0  0  0  0  0  0  0  0  0
  -15.1633   -5.4293  -27.7113 C   0  0  0  0  0  0  0  0  0  0  0  0
  -16.2805   -4.8108  -27.2453 C   0  0  0  0  0  0  0  0  0  0  0  0
  -16.8259   -3.5322  -27.6491 C   0  0  0  0  0  0  0  0  0  0  0  0
  -17.4764   -3.3080  -28.7722 C   0  0  0  0  0  0  0  0  0  0  0  0
  -18.0096   -1.9239  -29.1141 C   0  0  0  0  0  0  0  0  0  0  0  0
  -17.3762   -1.6440  -30.4960 C   0  0  0  0  0  0  0  0  0  0  0  0
  -15.8797   -1.6738  -30.2494 C   0  0  0  0  0  0  0  0  0  0  0  0
  -15.1662   -1.4464  -31.4152 O   0  0  0  0  0  0  0  0  0  0  0  0
  -17.7626   -4.3050  -29.7864 C   0  0  0  0  0  0  0  0  0  0  0  0
  -16.9111   -5.0918  -30.4616 C   0  0  0  0  0  0  0  0  0  0  0  0
  -17.3588   -6.0465  -31.3834 C   0  0  0  0  0  0  0  0  0  0  0  0
  -18.6926   -6.2372  -31.6552 C   0  0  0  0  0  0  0  0  0  0  0  0
  -19.5796   -5.4222  -30.9580 C   0  0  0  0  0  0  0  0  0  0  0  0
  -19.1355   -4.4862  -30.0531 C   0  0  0  0  0  0  0  0  0  0  0  0
  -16.6537   -2.4470  -26.6438 C   0  0  0  0  0  0  0  0  0  0  0  0
  -15.4304   -2.1751  -26.1107 C   0  0  0  0  0  0  0  0  0  0  0  0
  -15.2531   -1.1850  -25.1460 C   0  0  0  0  0  0  0  0  0  0  0  0
  -16.3609   -0.4537  -24.7165 C   0  0  0  0  0  0  0  0  0  0  0  0
  -17.6282   -0.7152  -25.2488 C   0  0  0  0  0  0  0  0  0  0  0  0
  -18.7448   -0.0055  -24.8412 O   0  0  0  0  0  0  0  0  0  0  0  0
  -17.7554   -1.7094  -26.2054 C   0  0  0  0  0  0  0  0  0  0  0  0
  -17.0264   -5.5148  -26.2861 C   0  0  0  0  0  0  0  0  0  0  0  0
  -16.6226   -6.7734  -25.8570 C   0  0  0  0  0  0  0  0  0  0  0  0
  -13.8206   -9.2963  -26.3046 C   0  0  0  0  0  0  0  0  0  0  0  0
  -14.2822  -10.3250  -27.3172 C   0  0  0  0  0  0  0  0  0  0  0  0
  1  2  1  0
  2  3  1  0
  2  4  1  0
  4  5  1  0
  5  6  1  0
  6  7  1  0
  7  8  1  0
  8  9  2  0
  9 10  1  0
 10 11  2  0
 11 12  1  0
 12 13  2  0
 13 14  1  0
 14 15  1  0
 15 16  1  0
 16 17  1  0
 13 18  1  0
 18 19  2  0
 19 20  1  0
 20 21  2  0
 21 22  1  0
 22 23  2  0
 12 24  1  0
 24 25  2  0
 25 26  1  0
 26 27  2  0
 27 28  1  0
 28 29  1  0
 28 30  2  0
 11 31  1  0
 31 32  2  0
  7 33  1  0
 33 34  1  0
 34  4  1  0
 32  8  1  0
 23 18  1  0
 30 24  1  0
M  CHG  1   4   1
M  END
>  <shape_align_shape_tanimoto>  (3) 
0.34916031826070187

>  <shape_align_color_tanimoto>  (3) 
0.074712348904371437

>  <metric>  (3) 
combo

>  <metric_score>  (3) 
0.212

>  <template_pid>  (3) 
6A6K

>  <template_shape_score>  (3) 
0.349

>  <template_color_score>  (3) 
0.075

>  <template_combo_score>  (3) 
0.212

$$$$
