6QLU_shape_pose
     RDKit          3D

 31 34  0  0  0  0  0  0  0  0999 V2000
    8.2864  -11.0233    4.8147 C   0  0  0  0  0  0  0  0  0  0  0  0
    9.1870  -12.1767    4.5332 C   0  0  0  0  0  0  0  0  0  0  0  0
    8.8928  -13.1259    3.5754 C   0  0  0  0  0  0  0  0  0  0  0  0
    9.7696  -14.1904    3.3467 C   0  0  0  0  0  0  0  0  0  0  0  0
   10.9286  -14.2731    4.0930 C   0  0  0  0  0  0  0  0  0  0  0  0
   12.1288  -15.5693    3.9012 S   0  0  0  0  0  0  0  0  0  0  0  0
   13.4029  -15.0919    2.6669 C   0  0  2  0  0  0  0  0  0  0  0  0
   14.0739  -14.0522    3.2263 O   0  0  0  0  0  0  0  0  0  0  0  0
   14.7099  -13.1816    2.3842 C   0  0  2  0  0  0  0  0  0  0  0  0
   15.4558  -12.1471    3.1912 C   0  0  0  0  0  0  0  0  0  0  0  0
   16.3865  -12.7685    3.9896 O   0  0  0  0  0  0  0  0  0  0  0  0
   13.6417  -12.5487    1.5140 C   0  0  2  0  0  0  0  0  0  0  0  0
   12.5989  -12.0958    2.3403 O   0  0  0  0  0  0  0  0  0  0  0  0
   13.1473  -13.6483    0.6183 C   0  0  2  0  0  0  0  0  0  0  0  0
   12.0343  -13.2170   -0.2344 N   0  0  0  0  0  0  0  0  0  0  0  0
   12.1687  -12.2959   -1.2059 C   0  0  0  0  0  0  0  0  0  0  0  0
   10.9273  -12.1475   -1.7903 C   0  0  0  0  0  0  0  0  0  0  0  0
   10.5980  -11.2511   -2.8931 C   0  0  0  0  0  0  0  0  0  0  0  0
    9.3372  -11.1741   -3.4069 C   0  0  0  0  0  0  0  0  0  0  0  0
    9.0904  -10.3084   -4.4502 C   0  0  0  0  0  0  0  0  0  0  0  0
   10.0803   -9.5037   -5.0058 C   0  0  0  0  0  0  0  0  0  0  0  0
    9.8291   -8.6537   -6.0329 F   0  0  0  0  0  0  0  0  0  0  0  0
   11.3532   -9.5833   -4.4850 C   0  0  0  0  0  0  0  0  0  0  0  0
   12.4843   -8.7724   -5.0001 C   0  0  0  0  0  0  0  0  0  0  0  0
   11.5812  -10.4545   -3.4420 C   0  0  0  0  0  0  0  0  0  0  0  0
   10.0824  -12.9829   -1.1540 N   0  0  0  0  0  0  0  0  0  0  0  0
   10.7785  -13.6269   -0.2072 N   0  0  0  0  0  0  0  0  0  0  0  0
   12.7597  -14.8799    1.3630 C   0  0  1  0  0  0  0  0  0  0  0  0
   13.0493  -15.9586    0.5054 O   0  0  0  0  0  0  0  0  0  0  0  0
   11.2100  -13.3006    5.0603 C   0  0  0  0  0  0  0  0  0  0  0  0
   10.3554  -12.2442    5.2983 C   0  0  0  0  0  0  0  0  0  0  0  0
  1  2  1  0
  2  3  2  0
  3  4  1  0
  4  5  2  0
  5  6  1  0
  7  6  1  1
  7  8  1  0
  8  9  1  0
  9 10  1  1
 10 11  1  0
  9 12  1  0
 12 13  1  1
 12 14  1  0
 14 15  1  1
 15 16  1  0
 16 17  2  0
 17 18  1  0
 18 19  2  0
 19 20  1  0
 20 21  2  0
 21 22  1  0
 21 23  1  0
 23 24  1  0
 23 25  2  0
 17 26  1  0
 26 27  2  0
 14 28  1  0
 28 29  1  6
  5 30  1  0
 30 31  2  0
 31  2  1  0
 28  7  1  0
 27 15  1  0
 25 18  1  0
M  END
>  <shape_align_shape_tanimoto>  (1) 
0.64537036059987818

>  <shape_align_color_tanimoto>  (1) 
0.039616572759797158

>  <metric>  (1) 
shape

>  <metric_score>  (1) 
0.645

>  <template_pid>  (1) 
6QLU

>  <template_shape_score>  (1) 
0.645

>  <template_color_score>  (1) 
0.040

>  <template_combo_score>  (1) 
0.342

$$$$
6QLU_color_pose
     RDKit          3D

 31 34  0  0  0  0  0  0  0  0999 V2000
    9.2623  -10.3097   -4.3095 C   0  0  0  0  0  0  0  0  0  0  0  0
   10.1847  -11.1374   -3.5174 C   0  0  0  0  0  0  0  0  0  0  0  0
   10.7474  -12.2493   -4.1128 C   0  0  0  0  0  0  0  0  0  0  0  0
   11.6193  -13.0542   -3.4064 C   0  0  0  0  0  0  0  0  0  0  0  0
   11.9671  -12.7995   -2.1027 C   0  0  0  0  0  0  0  0  0  0  0  0
   13.1208  -13.8972   -1.3157 S   0  0  0  0  0  0  0  0  0  0  0  0
   13.2982  -13.4707    0.3972 C   0  0  2  0  0  0  0  0  0  0  0  0
   14.3378  -14.1439    1.0430 O   0  0  0  0  0  0  0  0  0  0  0  0
   14.5986  -13.4442    2.2181 C   0  0  2  0  0  0  0  0  0  0  0  0
   15.7538  -14.0857    2.9865 C   0  0  0  0  0  0  0  0  0  0  0  0
   15.9684  -13.3326    4.1621 O   0  0  0  0  0  0  0  0  0  0  0  0
   13.4510  -13.3729    3.1545 C   0  0  2  0  0  0  0  0  0  0  0  0
   13.3376  -14.4754    3.9923 O   0  0  0  0  0  0  0  0  0  0  0  0
   12.1523  -13.0280    2.4592 C   0  0  2  0  0  0  0  0  0  0  0  0
   11.0188  -13.1982    3.3349 N   0  0  0  0  0  0  0  0  0  0  0  0
   10.4086  -12.3071    4.1457 C   0  0  0  0  0  0  0  0  0  0  0  0
    9.3667  -12.9469    4.7879 C   0  0  0  0  0  0  0  0  0  0  0  0
    8.4694  -12.3143    5.7506 C   0  0  0  0  0  0  0  0  0  0  0  0
    8.6238  -10.9683    6.0836 C   0  0  0  0  0  0  0  0  0  0  0  0
    7.7899  -10.3480    6.9932 C   0  0  0  0  0  0  0  0  0  0  0  0
    6.7973  -11.1180    7.5583 C   0  0  0  0  0  0  0  0  0  0  0  0
    5.9473  -10.5691    8.4574 F   0  0  0  0  0  0  0  0  0  0  0  0
    6.6077  -12.4510    7.2592 C   0  0  0  0  0  0  0  0  0  0  0  0
    5.4994  -13.2193    7.9219 C   0  0  0  0  0  0  0  0  0  0  0  0
    7.4560  -13.0656    6.3392 C   0  0  0  0  0  0  0  0  0  0  0  0
    9.3814  -14.2157    4.3398 N   0  0  0  0  0  0  0  0  0  0  0  0
   10.3688  -14.3640    3.4721 N   0  0  0  0  0  0  0  0  0  0  0  0
   12.0647  -13.8796    1.2261 C   0  0  1  0  0  0  0  0  0  0  0  0
   10.8888  -13.7954    0.5338 O   0  0  0  0  0  0  0  0  0  0  0  0
   11.4141  -11.6954   -1.4984 C   0  0  0  0  0  0  0  0  0  0  0  0
   10.5288  -10.8731   -2.2061 C   0  0  0  0  0  0  0  0  0  0  0  0
  1  2  1  0
  2  3  2  0
  3  4  1  0
  4  5  2  0
  5  6  1  0
  7  6  1  6
  7  8  1  0
  8  9  1  0
  9 10  1  1
 10 11  1  0
  9 12  1  0
 12 13  1  6
 12 14  1  0
 14 15  1  1
 15 16  1  0
 16 17  2  0
 17 18  1  0
 18 19  2  0
 19 20  1  0
 20 21  2  0
 21 22  1  0
 21 23  1  0
 23 24  1  0
 23 25  2  0
 17 26  1  0
 26 27  2  0
 14 28  1  0
 28 29  1  6
  5 30  1  0
 30 31  2  0
 31  2  1  0
 28  7  1  0
 27 15  1  0
 25 18  1  0
M  END
>  <shape_align_shape_tanimoto>  (2) 
0.49643293535499811

>  <shape_align_color_tanimoto>  (2) 
0.10774919495674717

>  <metric>  (2) 
color

>  <metric_score>  (2) 
0.108

>  <template_pid>  (2) 
6QLU

>  <template_shape_score>  (2) 
0.496

>  <template_color_score>  (2) 
0.108

>  <template_combo_score>  (2) 
0.302

$$$$
6QLU_combo_pose
     RDKit          3D

 31 34  0  0  0  0  0  0  0  0999 V2000
    8.1577  -10.4223    4.2613 C   0  0  0  0  0  0  0  0  0  0  0  0
    9.0084  -11.6408    4.3093 C   0  0  0  0  0  0  0  0  0  0  0  0
   10.0190  -11.8127    5.2399 C   0  0  0  0  0  0  0  0  0  0  0  0
   10.8030  -12.9607    5.2662 C   0  0  0  0  0  0  0  0  0  0  0  0
   10.5750  -13.9696    4.3378 C   0  0  0  0  0  0  0  0  0  0  0  0
   11.6201  -15.4053    4.4366 S   0  0  0  0  0  0  0  0  0  0  0  0
   13.1272  -15.2223    3.4041 C   0  0  2  0  0  0  0  0  0  0  0  0
   13.9174  -14.2342    3.8994 O   0  0  0  0  0  0  0  0  0  0  0  0
   14.8152  -13.6681    3.0320 C   0  0  2  0  0  0  0  0  0  0  0  0
   15.7217  -12.6979    3.7304 C   0  0  0  0  0  0  0  0  0  0  0  0
   15.0228  -11.6646    4.3203 O   0  0  0  0  0  0  0  0  0  0  0  0
   13.9926  -13.0054    1.9456 C   0  0  2  0  0  0  0  0  0  0  0  0
   12.9783  -12.2190    2.4611 O   0  0  0  0  0  0  0  0  0  0  0  0
   13.4699  -14.1701    1.1355 C   0  0  2  0  0  0  0  0  0  0  0  0
   12.6376  -13.7287    0.0328 N   0  0  0  0  0  0  0  0  0  0  0  0
   12.4424  -12.5308   -0.4965 C   0  0  0  0  0  0  0  0  0  0  0  0
   11.5451  -12.6347   -1.5415 C   0  0  0  0  0  0  0  0  0  0  0  0
   11.0287  -11.5880   -2.4164 C   0  0  0  0  0  0  0  0  0  0  0  0
   11.3879  -10.2645   -2.3151 C   0  0  0  0  0  0  0  0  0  0  0  0
   10.8452   -9.3513   -3.1883 C   0  0  0  0  0  0  0  0  0  0  0  0
    9.9406   -9.7194   -4.1765 C   0  0  0  0  0  0  0  0  0  0  0  0
    9.4402   -8.7946   -5.0020 F   0  0  0  0  0  0  0  0  0  0  0  0
    9.5859  -11.0405   -4.2728 C   0  0  0  0  0  0  0  0  0  0  0  0
    8.6139  -11.4426   -5.3327 C   0  0  0  0  0  0  0  0  0  0  0  0
   10.1298  -11.9364   -3.4025 C   0  0  0  0  0  0  0  0  0  0  0  0
   11.2328  -13.9628   -1.5854 N   0  0  0  0  0  0  0  0  0  0  0  0
   11.8818  -14.6002   -0.6532 N   0  0  0  0  0  0  0  0  0  0  0  0
   12.8203  -15.2230    1.9534 C   0  0  1  0  0  0  0  0  0  0  0  0
   12.9991  -16.4871    1.3681 O   0  0  0  0  0  0  0  0  0  0  0  0
    9.5726  -13.8208    3.3999 C   0  0  0  0  0  0  0  0  0  0  0  0
    8.8015  -12.6546    3.3996 C   0  0  0  0  0  0  0  0  0  0  0  0
  1  2  1  0
  2  3  2  0
  3  4  1  0
  4  5  2  0
  5  6  1  0
  7  6  1  1
  7  8  1  0
  8  9  1  0
  9 10  1  1
 10 11  1  0
  9 12  1  0
 12 13  1  1
 12 14  1  0
 14 15  1  6
 15 16  1  0
 16 17  2  0
 17 18  1  0
 18 19  2  0
 19 20  1  0
 20 21  2  0
 21 22  1  0
 21 23  1  0
 23 24  1  0
 23 25  2  0
 17 26  1  0
 26 27  2  0
 14 28  1  0
 28 29  1  6
  5 30  1  0
 30 31  2  0
 31  2  1  0
 28  7  1  0
 27 15  1  0
 25 18  1  0
M  END
>  <shape_align_shape_tanimoto>  (3) 
0.63869222506644097

>  <shape_align_color_tanimoto>  (3) 
0.052872640601394016

>  <metric>  (3) 
combo

>  <metric_score>  (3) 
0.346

>  <template_pid>  (3) 
6QLU

>  <template_shape_score>  (3) 
0.639

>  <template_color_score>  (3) 
0.053

>  <template_combo_score>  (3) 
0.346

$$$$
