6QGF_shape_pose
     RDKit          3D

 39 43  0  0  0  0  0  0  0  0999 V2000
    7.5428    8.7194    8.7266 O   0  0  0  0  0  0  0  0  0  0  0  0
    6.7462    9.7336    8.2076 C   0  0  0  0  0  0  0  0  0  0  0  0
    7.4235   10.3827    7.0150 C   0  0  1  0  0  0  0  0  0  0  0  0
    7.6215    9.4342    6.0711 O   0  0  0  0  0  0  0  0  0  0  0  0
    7.6499    9.8076    4.7623 C   0  0  1  0  0  0  0  0  0  0  0  0
    7.6933    8.3326    3.7482 S   0  0  0  0  0  0  0  0  0  0  0  0
    7.7393    8.6646    1.9909 C   0  0  0  0  0  0  0  0  0  0  0  0
    9.0174    9.3386    1.5453 C   0  0  2  0  0  0  0  0  0  0  0  0
    8.9306    9.5415    0.1701 O   0  0  0  0  0  0  0  0  0  0  0  0
   10.1842    8.4148    1.8087 C   0  0  0  0  0  0  0  0  0  0  0  0
   11.4578    8.9691    1.4161 N   0  0  0  0  0  0  0  0  0  0  0  0
   12.2391    9.6984    2.2291 C   0  0  0  0  0  0  0  0  0  0  0  0
   13.3747   10.0596    1.5183 C   0  0  0  0  0  0  0  0  0  0  0  0
   14.4864   10.8592    2.0295 C   0  0  0  0  0  0  0  0  0  0  0  0
   14.4860   11.3358    3.3213 C   0  0  0  0  0  0  0  0  0  0  0  0
   15.5393   12.0975    3.8144 C   0  0  0  0  0  0  0  0  0  0  0  0
   16.6001   12.3628    2.9514 C   0  0  0  0  0  0  0  0  0  0  0  0
   16.6178   11.8922    1.6504 C   0  0  0  0  0  0  0  0  0  0  0  0
   17.6735   12.1750    0.8418 F   0  0  0  0  0  0  0  0  0  0  0  0
   15.5489   11.1324    1.1857 C   0  0  0  0  0  0  0  0  0  0  0  0
   13.2083    9.5167    0.2956 N   0  0  0  0  0  0  0  0  0  0  0  0
   12.0646    8.8713    0.2490 N   0  0  0  0  0  0  0  0  0  0  0  0
    6.5023   10.7590    4.3967 C   0  0  2  0  0  0  0  0  0  0  0  0
    6.5556   11.0314    3.0362 O   0  0  0  0  0  0  0  0  0  0  0  0
    6.8410   12.0011    5.2068 C   0  0  1  0  0  0  0  0  0  0  0  0
    6.0497   13.1331    4.8446 N   0  0  0  0  0  0  0  0  0  0  0  0
    6.4609   14.3142    4.3132 C   0  0  0  0  0  0  0  0  0  0  0  0
    5.3320   15.0977    4.1344 C   0  0  0  0  0  0  0  0  0  0  0  0
    5.3076   16.4556    3.5848 C   0  0  0  0  0  0  0  0  0  0  0  0
    6.4727   17.0814    3.1861 C   0  0  0  0  0  0  0  0  0  0  0  0
    6.3868   18.3723    2.6706 C   0  0  0  0  0  0  0  0  0  0  0  0
    5.1623   19.0067    2.5630 C   0  0  0  0  0  0  0  0  0  0  0  0
    3.9970   18.3590    2.9707 C   0  0  0  0  0  0  0  0  0  0  0  0
    2.7841   18.9839    2.8656 F   0  0  0  0  0  0  0  0  0  0  0  0
    4.0712   17.0824    3.4819 C   0  0  0  0  0  0  0  0  0  0  0  0
    4.2802   14.3588    4.5653 N   0  0  0  0  0  0  0  0  0  0  0  0
    4.7251   13.1785    4.9904 N   0  0  0  0  0  0  0  0  0  0  0  0
    6.6837   11.6050    6.6375 C   0  0  1  0  0  0  0  0  0  0  0  0
    5.3192   11.4711    6.8996 O   0  0  0  0  0  0  0  0  0  0  0  0
  1  2  1  0
  3  2  1  1
  3  4  1  0
  4  5  1  0
  5  6  1  6
  6  7  1  0
  7  8  1  0
  8  9  1  6
  8 10  1  0
 10 11  1  0
 11 12  1  0
 12 13  2  0
 13 14  1  0
 14 15  2  0
 15 16  1  0
 16 17  2  0
 17 18  1  0
 18 19  1  0
 18 20  2  0
 13 21  1  0
 21 22  2  0
  5 23  1  0
 23 24  1  6
 23 25  1  0
 25 26  1  6
 26 27  1  0
 27 28  2  0
 28 29  1  0
 29 30  2  0
 30 31  1  0
 31 32  2  0
 32 33  1  0
 33 34  1  0
 33 35  2  0
 28 36  1  0
 36 37  2  0
 25 38  1  0
 38 39  1  6
 38  3  1  0
 22 11  1  0
 37 26  1  0
 20 14  1  0
 35 29  1  0
M  END
>  <shape_align_shape_tanimoto>  (1) 
0.30931973351774811

>  <shape_align_color_tanimoto>  (1) 
0.046581026935376607

>  <metric>  (1) 
shape

>  <metric_score>  (1) 
0.309

>  <template_pid>  (1) 
6QGF

>  <template_shape_score>  (1) 
0.309

>  <template_color_score>  (1) 
0.047

>  <template_combo_score>  (1) 
0.178

$$$$
6QGF_color_pose
     RDKit          3D

 39 43  0  0  0  0  0  0  0  0999 V2000
    8.6324    4.7347    1.0967 O   0  0  0  0  0  0  0  0  0  0  0  0
    7.4165    5.4261    1.1378 C   0  0  0  0  0  0  0  0  0  0  0  0
    7.7291    6.8689    1.4575 C   0  0  1  0  0  0  0  0  0  0  0  0
    8.3748    7.0065    2.6774 O   0  0  0  0  0  0  0  0  0  0  0  0
    8.1025    8.3104    3.1310 C   0  0  1  0  0  0  0  0  0  0  0  0
    9.1849    8.5684    4.5375 S   0  0  0  0  0  0  0  0  0  0  0  0
    9.0017   10.1872    5.2595 C   0  0  0  0  0  0  0  0  0  0  0  0
    7.7122   10.4895    5.9308 C   0  0  2  0  0  0  0  0  0  0  0  0
    7.3869    9.6258    6.9510 O   0  0  0  0  0  0  0  0  0  0  0  0
    6.5786   10.9630    5.0973 C   0  0  0  0  0  0  0  0  0  0  0  0
    6.9017   12.2188    4.4271 N   0  0  0  0  0  0  0  0  0  0  0  0
    6.6613   13.4435    4.9801 C   0  0  0  0  0  0  0  0  0  0  0  0
    7.0753   14.4328    4.1017 C   0  0  0  0  0  0  0  0  0  0  0  0
    7.0230   15.8817    4.2548 C   0  0  0  0  0  0  0  0  0  0  0  0
    7.5110   16.6484    3.2129 C   0  0  0  0  0  0  0  0  0  0  0  0
    7.4896   18.0317    3.3032 C   0  0  0  0  0  0  0  0  0  0  0  0
    6.9828   18.6428    4.4295 C   0  0  0  0  0  0  0  0  0  0  0  0
    6.4980   17.8452    5.4634 C   0  0  0  0  0  0  0  0  0  0  0  0
    5.9827   18.4031    6.6061 F   0  0  0  0  0  0  0  0  0  0  0  0
    6.5192   16.4678    5.3738 C   0  0  0  0  0  0  0  0  0  0  0  0
    7.5570   13.7584    3.0357 N   0  0  0  0  0  0  0  0  0  0  0  0
    7.4401   12.4608    3.2596 N   0  0  0  0  0  0  0  0  0  0  0  0
    8.2644    9.3297    2.0486 C   0  0  2  0  0  0  0  0  0  0  0  0
    7.0016    9.7957    1.6924 O   0  0  0  0  0  0  0  0  0  0  0  0
    9.0041    8.8493    0.8385 C   0  0  1  0  0  0  0  0  0  0  0  0
   10.4378    9.0622    1.0970 N   0  0  0  0  0  0  0  0  0  0  0  0
   10.8969   10.2925    1.4234 C   0  0  0  0  0  0  0  0  0  0  0  0
   12.2605   10.1861    1.6070 C   0  0  0  0  0  0  0  0  0  0  0  0
   13.1870   11.2601    1.9727 C   0  0  0  0  0  0  0  0  0  0  0  0
   12.7710   12.5613    2.1813 C   0  0  0  0  0  0  0  0  0  0  0  0
   13.7037   13.5372    2.5288 C   0  0  0  0  0  0  0  0  0  0  0  0
   15.0387   13.1744    2.6576 C   0  0  0  0  0  0  0  0  0  0  0  0
   15.4762   11.8841    2.4545 C   0  0  0  0  0  0  0  0  0  0  0  0
   16.7691   11.5024    2.5725 F   0  0  0  0  0  0  0  0  0  0  0  0
   14.5346   10.9242    2.1091 C   0  0  0  0  0  0  0  0  0  0  0  0
   12.5577    8.8741    1.3775 N   0  0  0  0  0  0  0  0  0  0  0  0
   11.4250    8.2230    1.0704 N   0  0  0  0  0  0  0  0  0  0  0  0
    8.7112    7.4506    0.4360 C   0  0  1  0  0  0  0  0  0  0  0  0
    9.8262    6.6033    0.4266 O   0  0  0  0  0  0  0  0  0  0  0  0
  1  2  1  0
  3  2  1  6
  3  4  1  0
  4  5  1  0
  5  6  1  1
  6  7  1  0
  7  8  1  0
  8  9  1  6
  8 10  1  0
 10 11  1  0
 11 12  1  0
 12 13  2  0
 13 14  1  0
 14 15  2  0
 15 16  1  0
 16 17  2  0
 17 18  1  0
 18 19  1  0
 18 20  2  0
 13 21  1  0
 21 22  2  0
  5 23  1  0
 23 24  1  6
 23 25  1  0
 25 26  1  1
 26 27  1  0
 27 28  2  0
 28 29  1  0
 29 30  2  0
 30 31  1  0
 31 32  2  0
 32 33  1  0
 33 34  1  0
 33 35  2  0
 28 36  1  0
 36 37  2  0
 25 38  1  0
 38 39  1  1
 38  3  1  0
 22 11  1  0
 37 26  1  0
 20 14  1  0
 35 29  1  0
M  END
>  <shape_align_shape_tanimoto>  (2) 
0.27249968185328211

>  <shape_align_color_tanimoto>  (2) 
0.07665161840134542

>  <metric>  (2) 
color

>  <metric_score>  (2) 
0.077

>  <template_pid>  (2) 
6QGF

>  <template_shape_score>  (2) 
0.272

>  <template_color_score>  (2) 
0.077

>  <template_combo_score>  (2) 
0.175

$$$$
6QGF_combo_pose
     RDKit          3D

 39 43  0  0  0  0  0  0  0  0999 V2000
    7.1518    9.1359    8.1999 O   0  0  0  0  0  0  0  0  0  0  0  0
    6.4501   10.2614    7.7253 C   0  0  0  0  0  0  0  0  0  0  0  0
    7.2066   10.9153    6.5856 C   0  0  1  0  0  0  0  0  0  0  0  0
    7.3272    9.9688    5.5840 O   0  0  0  0  0  0  0  0  0  0  0  0
    7.8895   10.4965    4.4149 C   0  0  1  0  0  0  0  0  0  0  0  0
    8.1654    9.1549    3.2888 S   0  0  0  0  0  0  0  0  0  0  0  0
    9.3970    8.0145    3.8776 C   0  0  0  0  0  0  0  0  0  0  0  0
   10.7798    8.5011    3.7382 C   0  0  2  0  0  0  0  0  0  0  0  0
   11.6295    7.4952    4.2757 O   0  0  0  0  0  0  0  0  0  0  0  0
   11.1478    9.8650    4.1573 C   0  0  0  0  0  0  0  0  0  0  0  0
   12.5909   10.1274    3.9591 N   0  0  0  0  0  0  0  0  0  0  0  0
   13.1341   10.6441    2.8252 C   0  0  0  0  0  0  0  0  0  0  0  0
   14.4944   10.7215    3.0580 C   0  0  0  0  0  0  0  0  0  0  0  0
   15.4724   11.2271    2.0857 C   0  0  0  0  0  0  0  0  0  0  0  0
   15.0619   11.6757    0.8285 C   0  0  0  0  0  0  0  0  0  0  0  0
   15.9741   12.1531   -0.0981 C   0  0  0  0  0  0  0  0  0  0  0  0
   17.3058   12.1679    0.2704 C   0  0  0  0  0  0  0  0  0  0  0  0
   17.7406   11.7305    1.5066 C   0  0  0  0  0  0  0  0  0  0  0  0
   19.0524   11.7495    1.8582 F   0  0  0  0  0  0  0  0  0  0  0  0
   16.8201   11.2494    2.4403 C   0  0  0  0  0  0  0  0  0  0  0  0
   14.7328   10.2600    4.2983 N   0  0  0  0  0  0  0  0  0  0  0  0
   13.5624    9.8967    4.8477 N   0  0  0  0  0  0  0  0  0  0  0  0
    6.8561   11.4999    3.8542 C   0  0  2  0  0  0  0  0  0  0  0  0
    7.1498   11.8699    2.5664 O   0  0  0  0  0  0  0  0  0  0  0  0
    6.9192   12.6766    4.8297 C   0  0  1  0  0  0  0  0  0  0  0  0
    5.9855   13.7071    4.4059 N   0  0  0  0  0  0  0  0  0  0  0  0
    6.1949   15.0159    4.1953 C   0  0  0  0  0  0  0  0  0  0  0  0
    4.9664   15.5370    3.8002 C   0  0  0  0  0  0  0  0  0  0  0  0
    4.6442   16.9101    3.4496 C   0  0  0  0  0  0  0  0  0  0  0  0
    3.3304   17.1672    3.0859 C   0  0  0  0  0  0  0  0  0  0  0  0
    3.0194   18.4868    2.7464 C   0  0  0  0  0  0  0  0  0  0  0  0
    3.9931   19.4588    2.7823 C   0  0  0  0  0  0  0  0  0  0  0  0
    5.2929   19.1924    3.1445 C   0  0  0  0  0  0  0  0  0  0  0  0
    6.2393   20.1599    3.1742 F   0  0  0  0  0  0  0  0  0  0  0  0
    5.6145   17.8942    3.4821 C   0  0  0  0  0  0  0  0  0  0  0  0
    4.0745   14.5141    3.7921 N   0  0  0  0  0  0  0  0  0  0  0  0
    4.7007   13.4090    4.1604 N   0  0  0  0  0  0  0  0  0  0  0  0
    6.4417   12.1325    6.1636 C   0  0  1  0  0  0  0  0  0  0  0  0
    5.1138   11.7477    5.9671 O   0  0  0  0  0  0  0  0  0  0  0  0
  1  2  1  0
  3  2  1  1
  3  4  1  0
  4  5  1  0
  5  6  1  6
  6  7  1  0
  7  8  1  0
  8  9  1  1
  8 10  1  0
 10 11  1  0
 11 12  1  0
 12 13  2  0
 13 14  1  0
 14 15  2  0
 15 16  1  0
 16 17  2  0
 17 18  1  0
 18 19  1  0
 18 20  2  0
 13 21  1  0
 21 22  2  0
  5 23  1  0
 23 24  1  6
 23 25  1  0
 25 26  1  6
 26 27  1  0
 27 28  2  0
 28 29  1  0
 29 30  2  0
 30 31  1  0
 31 32  2  0
 32 33  1  0
 33 34  1  0
 33 35  2  0
 28 36  1  0
 36 37  2  0
 25 38  1  0
 38 39  1  6
 38  3  1  0
 22 11  1  0
 37 26  1  0
 20 14  1  0
 35 29  1  0
M  END
>  <shape_align_shape_tanimoto>  (3) 
0.30285367508647071

>  <shape_align_color_tanimoto>  (3) 
0.057204500896341701

>  <metric>  (3) 
combo

>  <metric_score>  (3) 
0.180

>  <template_pid>  (3) 
6QGF

>  <template_shape_score>  (3) 
0.303

>  <template_color_score>  (3) 
0.057

>  <template_combo_score>  (3) 
0.180

$$$$
