6GGA_shape_pose
     RDKit          3D

 19 21  0  0  0  0  0  0  0  0999 V2000
   94.0941   92.5539  -41.9737 C   0  0  0  0  0  0  0  0  0  0  0  0
   92.5844   92.5213  -41.8574 C   0  0  0  0  0  0  0  0  0  0  0  0
   92.0196   93.4539  -42.8198 N   0  0  0  0  0  0  0  0  0  0  0  0
   91.7791   94.7470  -42.5247 C   0  0  0  0  0  0  0  0  0  0  0  0
   91.9598   95.5191  -41.3744 C   0  0  0  0  0  0  0  0  0  0  0  0
   91.6057   96.8536  -41.3879 C   0  0  0  0  0  0  0  0  0  0  0  0
   91.0697   97.4621  -42.5190 C   0  0  0  0  0  0  0  0  0  0  0  0
   90.6912   98.9170  -42.5109 C   0  0  0  0  0  0  0  0  0  0  0  0
   91.8102   99.7455  -42.9241 N   0  0  0  0  0  0  0  0  0  0  0  0
   92.0286  100.8742  -42.0451 C   0  0  0  0  0  0  0  0  0  0  0  0
   90.8909   96.6903  -43.6633 C   0  0  0  0  0  0  0  0  0  0  0  0
   91.2416   95.3475  -43.6666 C   0  0  0  0  0  0  0  0  0  0  0  0
   91.1613   94.3854  -44.6650 C   0  0  0  0  0  0  0  0  0  0  0  0
   90.7178   94.4115  -45.9765 C   0  0  0  0  0  0  0  0  0  0  0  0
   90.7700   93.2556  -46.7293 C   0  0  0  0  0  0  0  0  0  0  0  0
   91.2610   92.0735  -46.1847 C   0  0  0  0  0  0  0  0  0  0  0  0
   91.3036   90.5187  -47.2801 Br  0  0  0  0  0  0  0  0  0  0  0  0
   91.6989   92.0709  -44.8715 C   0  0  0  0  0  0  0  0  0  0  0  0
   91.6576   93.2177  -44.0932 C   0  0  0  0  0  0  0  0  0  0  0  0
  1  2  1  0
  2  3  1  0
  3  4  1  0
  4  5  2  0
  5  6  1  0
  6  7  2  0
  7  8  1  0
  8  9  1  0
  9 10  1  0
  7 11  1  0
 11 12  2  0
 12 13  1  0
 13 14  2  0
 14 15  1  0
 15 16  2  0
 16 17  1  0
 16 18  1  0
 18 19  2  0
 19  3  1  0
 12  4  1  0
 19 13  1  0
M  CHG  1   9   1
M  END
>  <shape_align_shape_tanimoto>  (1) 
0.89276063118035076

>  <shape_align_color_tanimoto>  (1) 
0.12020990315936313

>  <metric>  (1) 
shape

>  <metric_score>  (1) 
0.893

>  <template_pid>  (1) 
6GGA

>  <template_shape_score>  (1) 
0.893

>  <template_color_score>  (1) 
0.120

>  <template_combo_score>  (1) 
0.506

$$$$
6GGA_color_pose
     RDKit          3D

 19 21  0  0  0  0  0  0  0  0999 V2000
   90.2856   92.1664  -45.5546 C   0  0  0  0  0  0  0  0  0  0  0  0
   91.4621   93.0248  -45.4774 C   0  0  0  0  0  0  0  0  0  0  0  0
   91.7266   93.7427  -44.2766 N   0  0  0  0  0  0  0  0  0  0  0  0
   91.3239   94.9686  -43.9174 C   0  0  0  0  0  0  0  0  0  0  0  0
   90.5528   95.8879  -44.5764 C   0  0  0  0  0  0  0  0  0  0  0  0
   90.2639   97.1184  -43.9875 C   0  0  0  0  0  0  0  0  0  0  0  0
   90.7351   97.4579  -42.7346 C   0  0  0  0  0  0  0  0  0  0  0  0
   90.4281   98.7741  -42.1006 C   0  0  0  0  0  0  0  0  0  0  0  0
   91.4190   99.7777  -42.4274 N   0  0  0  0  0  0  0  0  0  0  0  0
   92.6502   99.1606  -42.9286 C   0  0  0  0  0  0  0  0  0  0  0  0
   91.5166   96.5185  -42.0738 C   0  0  0  0  0  0  0  0  0  0  0  0
   91.8051   95.2931  -42.6587 C   0  0  0  0  0  0  0  0  0  0  0  0
   92.5389   94.2011  -42.2362 C   0  0  0  0  0  0  0  0  0  0  0  0
   93.2420   93.9562  -41.0756 C   0  0  0  0  0  0  0  0  0  0  0  0
   93.9104   92.7466  -40.8935 C   0  0  0  0  0  0  0  0  0  0  0  0
   93.8322   91.8278  -41.9149 C   0  0  0  0  0  0  0  0  0  0  0  0
   94.7504   90.1545  -41.6758 Br  0  0  0  0  0  0  0  0  0  0  0  0
   93.1310   92.0588  -43.0850 C   0  0  0  0  0  0  0  0  0  0  0  0
   92.4744   93.2813  -43.2317 C   0  0  0  0  0  0  0  0  0  0  0  0
  1  2  1  0
  2  3  1  0
  3  4  1  0
  4  5  2  0
  5  6  1  0
  6  7  2  0
  7  8  1  0
  8  9  1  0
  9 10  1  0
  7 11  1  0
 11 12  2  0
 12 13  1  0
 13 14  2  0
 14 15  1  0
 15 16  2  0
 16 17  1  0
 16 18  1  0
 18 19  2  0
 19  3  1  0
 12  4  1  0
 19 13  1  0
M  CHG  1   9   1
M  END
>  <shape_align_shape_tanimoto>  (2) 
0.75053433722085117

>  <shape_align_color_tanimoto>  (2) 
0.14687693883766287

>  <metric>  (2) 
color

>  <metric_score>  (2) 
0.147

>  <template_pid>  (2) 
6GGA

>  <template_shape_score>  (2) 
0.751

>  <template_color_score>  (2) 
0.147

>  <template_combo_score>  (2) 
0.449

$$$$
6GGA_combo_pose
     RDKit          3D

 19 21  0  0  0  0  0  0  0  0999 V2000
   94.0990   92.4450  -41.9416 C   0  0  0  0  0  0  0  0  0  0  0  0
   92.5969   92.5212  -41.8902 C   0  0  0  0  0  0  0  0  0  0  0  0
   92.0334   93.5296  -42.7564 N   0  0  0  0  0  0  0  0  0  0  0  0
   91.8031   94.8037  -42.3883 C   0  0  0  0  0  0  0  0  0  0  0  0
   91.9812   95.5380  -41.2325 C   0  0  0  0  0  0  0  0  0  0  0  0
   91.6343   96.8697  -41.1701 C   0  0  0  0  0  0  0  0  0  0  0  0
   91.0881   97.5238  -42.2807 C   0  0  0  0  0  0  0  0  0  0  0  0
   90.7056   98.9362  -42.2591 C   0  0  0  0  0  0  0  0  0  0  0  0
   91.7437   99.8596  -42.6447 N   0  0  0  0  0  0  0  0  0  0  0  0
   92.4531   99.4855  -43.8241 C   0  0  0  0  0  0  0  0  0  0  0  0
   90.9053   96.7994  -43.4424 C   0  0  0  0  0  0  0  0  0  0  0  0
   91.2624   95.4577  -43.4823 C   0  0  0  0  0  0  0  0  0  0  0  0
   91.1593   94.5737  -44.5357 C   0  0  0  0  0  0  0  0  0  0  0  0
   90.6929   94.7062  -45.8406 C   0  0  0  0  0  0  0  0  0  0  0  0
   90.7354   93.5926  -46.6445 C   0  0  0  0  0  0  0  0  0  0  0  0
   91.2117   92.3709  -46.2218 C   0  0  0  0  0  0  0  0  0  0  0  0
   91.2648   90.8389  -47.3436 Br  0  0  0  0  0  0  0  0  0  0  0  0
   91.6682   92.2774  -44.9139 C   0  0  0  0  0  0  0  0  0  0  0  0
   91.6505   93.3663  -44.0558 C   0  0  0  0  0  0  0  0  0  0  0  0
  1  2  1  0
  2  3  1  0
  3  4  1  0
  4  5  2  0
  5  6  1  0
  6  7  2  0
  7  8  1  0
  8  9  1  0
  9 10  1  0
  7 11  1  0
 11 12  2  0
 12 13  1  0
 13 14  2  0
 14 15  1  0
 15 16  2  0
 16 17  1  0
 16 18  1  0
 18 19  2  0
 19  3  1  0
 12  4  1  0
 19 13  1  0
M  CHG  1   9   1
M  END
>  <shape_align_shape_tanimoto>  (3) 
0.89057589498643452

>  <shape_align_color_tanimoto>  (3) 
0.12832994344926671

>  <metric>  (3) 
combo

>  <metric_score>  (3) 
0.509

>  <template_pid>  (3) 
6GGA

>  <template_shape_score>  (3) 
0.891

>  <template_color_score>  (3) 
0.128

>  <template_combo_score>  (3) 
0.509

$$$$
