4KIL_shape_pose
     RDKit          3D

 19 21  0  0  0  0  0  0  0  0999 V2000
   -9.8321  -16.6336   21.0962 O   0  0  0  0  0  0  0  0  0  0  0  0
   -9.0680  -15.4865   21.2837 C   0  0  0  0  0  0  0  0  0  0  0  0
   -9.4998  -14.4831   22.1244 C   0  0  0  0  0  0  0  0  0  0  0  0
   -8.7103  -13.3647   22.2824 C   0  0  0  0  0  0  0  0  0  0  0  0
   -9.0738  -12.3041   23.1205 C   0  0  0  0  0  0  0  0  0  0  0  0
   -8.2173  -11.2099   23.2301 C   0  0  0  0  0  0  0  0  0  0  0  0
   -7.0318  -11.1488   22.5391 C   0  0  0  0  0  0  0  0  0  0  0  0
   -6.0980  -10.0341   22.6358 C   0  0  0  0  0  0  0  0  0  0  0  0
   -5.9420   -9.3064   23.8259 C   0  0  0  0  0  0  0  0  0  0  0  0
   -5.0294   -8.2583   23.8176 C   0  0  0  0  0  0  0  0  0  0  0  0
   -4.3101   -7.9497   22.6861 C   0  0  0  0  0  0  0  0  0  0  0  0
   -3.4379   -6.9253   22.7262 F   0  0  0  0  0  0  0  0  0  0  0  0
   -4.4700   -8.6683   21.5256 C   0  0  0  0  0  0  0  0  0  0  0  0
   -5.3698   -9.7165   21.5022 C   0  0  0  0  0  0  0  0  0  0  0  0
   -6.6805  -12.2143   21.7053 C   0  0  0  0  0  0  0  0  0  0  0  0
   -7.5198  -13.3021   21.5879 C   0  0  0  0  0  0  0  0  0  0  0  0
   -7.1164  -14.2926   20.7725 N   0  0  0  0  0  0  0  0  0  0  0  0
   -7.8748  -15.4112   20.5957 C   0  0  0  0  0  0  0  0  0  0  0  0
   -7.4270  -16.4127   19.7476 O   0  0  0  0  0  0  0  0  0  0  0  0
  1  2  1  0
  2  3  2  0
  3  4  1  0
  4  5  2  0
  5  6  1  0
  6  7  2  0
  7  8  1  0
  8  9  2  0
  9 10  1  0
 10 11  2  0
 11 12  1  0
 11 13  1  0
 13 14  2  0
  7 15  1  0
 15 16  2  0
 16 17  1  0
 17 18  2  0
 18 19  1  0
 18  2  1  0
 16  4  1  0
 14  8  1  0
M  END
>  <shape_align_shape_tanimoto>  (1) 
0.75813408564460527

>  <shape_align_color_tanimoto>  (1) 
0.20322851654223334

>  <metric>  (1) 
shape

>  <metric_score>  (1) 
0.758

>  <template_pid>  (1) 
4KIL

>  <template_shape_score>  (1) 
0.758

>  <template_color_score>  (1) 
0.203

>  <template_combo_score>  (1) 
0.481

$$$$
4KIL_color_pose
     RDKit          3D

 19 21  0  0  0  0  0  0  0  0999 V2000
   -9.9839  -15.9893   21.4468 O   0  0  0  0  0  0  0  0  0  0  0  0
   -9.1030  -14.9426   21.5623 C   0  0  0  0  0  0  0  0  0  0  0  0
   -9.4213  -13.8478   22.3597 C   0  0  0  0  0  0  0  0  0  0  0  0
   -8.5140  -12.8007   22.4591 C   0  0  0  0  0  0  0  0  0  0  0  0
   -8.8040  -11.7015   23.2340 C   0  0  0  0  0  0  0  0  0  0  0  0
   -7.8645  -10.6696   23.2988 C   0  0  0  0  0  0  0  0  0  0  0  0
   -6.6759  -10.7739   22.5910 C   0  0  0  0  0  0  0  0  0  0  0  0
   -5.6754   -9.6939   22.6161 C   0  0  0  0  0  0  0  0  0  0  0  0
   -6.1991   -8.3972   22.7131 C   0  0  0  0  0  0  0  0  0  0  0  0
   -5.3644   -7.2869   22.7645 C   0  0  0  0  0  0  0  0  0  0  0  0
   -3.9933   -7.5119   22.7172 C   0  0  0  0  0  0  0  0  0  0  0  0
   -3.1807   -6.4179   22.7709 F   0  0  0  0  0  0  0  0  0  0  0  0
   -3.4804   -8.8032   22.6211 C   0  0  0  0  0  0  0  0  0  0  0  0
   -4.3313   -9.9109   22.5695 C   0  0  0  0  0  0  0  0  0  0  0  0
   -6.3725  -11.8697   21.8115 C   0  0  0  0  0  0  0  0  0  0  0  0
   -7.3196  -12.8733   21.7659 C   0  0  0  0  0  0  0  0  0  0  0  0
   -7.0239  -13.9457   20.9943 N   0  0  0  0  0  0  0  0  0  0  0  0
   -7.8994  -14.9754   20.8855 C   0  0  0  0  0  0  0  0  0  0  0  0
   -7.5195  -16.0335   20.0727 O   0  0  0  0  0  0  0  0  0  0  0  0
  1  2  1  0
  2  3  2  0
  3  4  1  0
  4  5  2  0
  5  6  1  0
  6  7  2  0
  7  8  1  0
  8  9  2  0
  9 10  1  0
 10 11  2  0
 11 12  1  0
 11 13  1  0
 13 14  2  0
  7 15  1  0
 15 16  2  0
 16 17  1  0
 17 18  2  0
 18 19  1  0
 18  2  1  0
 16  4  1  0
 14  8  1  0
M  END
>  <shape_align_shape_tanimoto>  (2) 
0.68805173691935073

>  <shape_align_color_tanimoto>  (2) 
0.21840523589437366

>  <metric>  (2) 
color

>  <metric_score>  (2) 
0.218

>  <template_pid>  (2) 
4KIL

>  <template_shape_score>  (2) 
0.688

>  <template_color_score>  (2) 
0.218

>  <template_combo_score>  (2) 
0.453

$$$$
4KIL_combo_pose
     RDKit          3D

 19 21  0  0  0  0  0  0  0  0999 V2000
   -9.8321  -16.6336   21.0962 O   0  0  0  0  0  0  0  0  0  0  0  0
   -9.0680  -15.4865   21.2837 C   0  0  0  0  0  0  0  0  0  0  0  0
   -9.4998  -14.4831   22.1244 C   0  0  0  0  0  0  0  0  0  0  0  0
   -8.7103  -13.3647   22.2824 C   0  0  0  0  0  0  0  0  0  0  0  0
   -9.0738  -12.3041   23.1205 C   0  0  0  0  0  0  0  0  0  0  0  0
   -8.2173  -11.2099   23.2301 C   0  0  0  0  0  0  0  0  0  0  0  0
   -7.0318  -11.1488   22.5391 C   0  0  0  0  0  0  0  0  0  0  0  0
   -6.0980  -10.0341   22.6358 C   0  0  0  0  0  0  0  0  0  0  0  0
   -5.9420   -9.3064   23.8259 C   0  0  0  0  0  0  0  0  0  0  0  0
   -5.0294   -8.2583   23.8176 C   0  0  0  0  0  0  0  0  0  0  0  0
   -4.3101   -7.9497   22.6861 C   0  0  0  0  0  0  0  0  0  0  0  0
   -3.4379   -6.9253   22.7262 F   0  0  0  0  0  0  0  0  0  0  0  0
   -4.4700   -8.6683   21.5256 C   0  0  0  0  0  0  0  0  0  0  0  0
   -5.3698   -9.7165   21.5022 C   0  0  0  0  0  0  0  0  0  0  0  0
   -6.6805  -12.2143   21.7053 C   0  0  0  0  0  0  0  0  0  0  0  0
   -7.5198  -13.3021   21.5879 C   0  0  0  0  0  0  0  0  0  0  0  0
   -7.1164  -14.2926   20.7725 N   0  0  0  0  0  0  0  0  0  0  0  0
   -7.8748  -15.4112   20.5957 C   0  0  0  0  0  0  0  0  0  0  0  0
   -7.4270  -16.4127   19.7476 O   0  0  0  0  0  0  0  0  0  0  0  0
  1  2  1  0
  2  3  2  0
  3  4  1  0
  4  5  2  0
  5  6  1  0
  6  7  2  0
  7  8  1  0
  8  9  2  0
  9 10  1  0
 10 11  2  0
 11 12  1  0
 11 13  1  0
 13 14  2  0
  7 15  1  0
 15 16  2  0
 16 17  1  0
 17 18  2  0
 18 19  1  0
 18  2  1  0
 16  4  1  0
 14  8  1  0
M  END
>  <shape_align_shape_tanimoto>  (3) 
0.75813408564460527

>  <shape_align_color_tanimoto>  (3) 
0.20322851654223334

>  <metric>  (3) 
combo

>  <metric_score>  (3) 
0.481

>  <template_pid>  (3) 
4KIL

>  <template_shape_score>  (3) 
0.758

>  <template_color_score>  (3) 
0.203

>  <template_combo_score>  (3) 
0.481

$$$$
