6BAW_shape_pose
     RDKit          3D

 30 32  0  0  0  0  0  0  0  0999 V2000
    1.4004   12.7536   24.8520 C   0  0  0  0  0  0  0  0  0  0  0  0
    2.7759   13.1072   25.0089 O   0  0  0  0  0  0  0  0  0  0  0  0
    3.0691   14.4279   25.2335 C   0  0  0  0  0  0  0  0  0  0  0  0
    2.0288   15.1856   25.2730 O   0  0  0  0  0  0  0  0  0  0  0  0
    4.3331   15.0653   25.4249 C   0  0  0  0  0  0  0  0  0  0  0  0
    4.3008   16.4547   25.6411 C   0  0  0  0  0  0  0  0  0  0  0  0
    3.0939   17.1588   25.6628 O   0  0  0  0  0  0  0  0  0  0  0  0
    5.4352   17.1991   25.8419 C   0  0  0  0  0  0  0  0  0  0  0  0
    6.6355   16.5563   25.8282 C   0  0  0  0  0  0  0  0  0  0  0  0
    7.7735   17.3507   26.0372 O   0  0  0  0  0  0  0  0  0  0  0  0
    6.7385   15.1759   25.6178 C   0  0  0  0  0  0  0  0  0  0  0  0
    8.0733   14.6344   25.6030 C   0  0  0  0  0  0  0  0  0  0  0  0
    9.0554   15.4482   25.7972 O   0  0  0  0  0  0  0  0  0  0  0  0
    8.4527   13.3337   25.4024 O   0  0  0  0  0  0  0  0  0  0  0  0
    9.7431   12.8082   25.3858 C   0  0  0  0  0  0  0  0  0  0  0  0
    5.5685   14.4238   25.4148 C   0  0  0  0  0  0  0  0  0  0  0  0
    5.7523   12.9879   25.1900 C   0  0  0  0  0  0  0  0  0  0  0  0
    5.7256   12.6432   23.7369 C   0  0  0  0  0  0  0  0  0  0  0  0
    6.0227   11.2358   23.3935 C   0  0  0  0  0  0  0  0  0  0  0  0
    7.3195   10.8636   23.1243 N   0  0  0  0  0  0  0  0  0  0  0  0
    7.3517    9.5739   22.7799 C   0  0  0  0  0  0  0  0  0  0  0  0
    6.0599    9.1301   22.8346 C   0  0  0  0  0  0  0  0  0  0  0  0
    5.2513   10.1706   23.2182 N   0  0  0  0  0  0  0  0  0  0  0  0
    3.8415    9.9389   23.4414 C   0  0  0  0  0  0  0  0  0  0  0  0
    3.5835    9.2205   24.6987 C   0  0  0  0  0  0  0  0  0  0  0  0
    3.5923    7.8161   24.6137 C   0  0  0  0  0  0  0  0  0  0  0  0
    3.3683    7.0145   25.6917 C   0  0  0  0  0  0  0  0  0  0  0  0
    3.1195    7.5482   26.9315 C   0  0  0  0  0  0  0  0  0  0  0  0
    3.1052    8.9185   27.0426 C   0  0  0  0  0  0  0  0  0  0  0  0
    3.3363    9.7342   25.9291 C   0  0  0  0  0  0  0  0  0  0  0  0
  1  2  1  0
  2  3  1  0
  3  4  2  0
  3  5  1  0
  5  6  2  0
  6  7  1  0
  6  8  1  0
  8  9  2  0
  9 10  1  0
  9 11  1  0
 11 12  1  0
 12 13  2  0
 12 14  1  0
 14 15  1  0
 11 16  2  0
 16 17  1  0
 17 18  1  0
 18 19  1  0
 19 20  2  0
 20 21  1  0
 21 22  2  0
 22 23  1  0
 23 24  1  0
 24 25  1  0
 25 26  2  0
 26 27  1  0
 27 28  2  0
 28 29  1  0
 29 30  2  0
 16  5  1  0
 23 19  1  0
 30 25  1  0
M  END
>  <shape_align_shape_tanimoto>  (1) 
0.66276322468715509

>  <shape_align_color_tanimoto>  (1) 
0.056942916308657401

>  <metric>  (1) 
shape

>  <metric_score>  (1) 
0.663

>  <template_pid>  (1) 
6BAW

>  <template_shape_score>  (1) 
0.663

>  <template_color_score>  (1) 
0.057

>  <template_combo_score>  (1) 
0.360

$$$$
6BAW_color_pose
     RDKit          3D

 30 32  0  0  0  0  0  0  0  0999 V2000
    1.1655   13.4615   22.2279 C   0  0  0  0  0  0  0  0  0  0  0  0
    1.5393   12.2710   22.8464 O   0  0  0  0  0  0  0  0  0  0  0  0
    2.8805   11.9864   23.1856 C   0  0  0  0  0  0  0  0  0  0  0  0
    3.7130   12.8494   22.9066 O   0  0  0  0  0  0  0  0  0  0  0  0
    3.1150   10.7109   23.8219 C   0  0  0  0  0  0  0  0  0  0  0  0
    3.4135    9.6491   22.9515 C   0  0  0  0  0  0  0  0  0  0  0  0
    3.5117    9.8478   21.5793 O   0  0  0  0  0  0  0  0  0  0  0  0
    3.6221    8.3694   23.4108 C   0  0  0  0  0  0  0  0  0  0  0  0
    3.5278    8.1642   24.7677 C   0  0  0  0  0  0  0  0  0  0  0  0
    3.7401    6.8716   25.2273 O   0  0  0  0  0  0  0  0  0  0  0  0
    3.2369    9.1973   25.6179 C   0  0  0  0  0  0  0  0  0  0  0  0
    3.1614    8.8646   27.0533 C   0  0  0  0  0  0  0  0  0  0  0  0
    2.0843    8.5061   27.5961 O   0  0  0  0  0  0  0  0  0  0  0  0
    4.3361    8.9583   27.8114 O   0  0  0  0  0  0  0  0  0  0  0  0
    4.3865    8.6681   29.1810 C   0  0  0  0  0  0  0  0  0  0  0  0
    3.0173   10.5137   25.1825 C   0  0  0  0  0  0  0  0  0  0  0  0
    2.6790   11.5018   26.1657 C   0  0  0  0  0  0  0  0  0  0  0  0
    3.6116   12.4585   26.7510 C   0  0  0  0  0  0  0  0  0  0  0  0
    4.3303   13.4277   25.9172 C   0  0  0  0  0  0  0  0  0  0  0  0
    3.7303   14.6242   25.5752 N   0  0  0  0  0  0  0  0  0  0  0  0
    4.5984   15.3829   24.8858 C   0  0  0  0  0  0  0  0  0  0  0  0
    5.7424   14.6446   24.8047 C   0  0  0  0  0  0  0  0  0  0  0  0
    5.5850   13.4431   25.4365 N   0  0  0  0  0  0  0  0  0  0  0  0
    6.6573   12.5076   25.5134 C   0  0  0  0  0  0  0  0  0  0  0  0
    6.8366   11.5625   24.4064 C   0  0  0  0  0  0  0  0  0  0  0  0
    6.4984   10.2362   24.4103 C   0  0  0  0  0  0  0  0  0  0  0  0
    6.7657    9.4853   23.2844 C   0  0  0  0  0  0  0  0  0  0  0  0
    7.3551    9.9895   22.1473 C   0  0  0  0  0  0  0  0  0  0  0  0
    7.6931   11.3155   22.1412 C   0  0  0  0  0  0  0  0  0  0  0  0
    7.4364   12.0807   23.2510 C   0  0  0  0  0  0  0  0  0  0  0  0
  1  2  1  0
  2  3  1  0
  3  4  2  0
  3  5  1  0
  5  6  2  0
  6  7  1  0
  6  8  1  0
  8  9  2  0
  9 10  1  0
  9 11  1  0
 11 12  1  0
 12 13  2  0
 12 14  1  0
 14 15  1  0
 11 16  2  0
 16 17  1  0
 17 18  1  0
 18 19  1  0
 19 20  2  0
 20 21  1  0
 21 22  2  0
 22 23  1  0
 23 24  1  0
 24 25  1  0
 25 26  2  0
 26 27  1  0
 27 28  2  0
 28 29  1  0
 29 30  2  0
 16  5  1  0
 23 19  1  0
 30 25  1  0
M  END
>  <shape_align_shape_tanimoto>  (2) 
0.51014920954462217

>  <shape_align_color_tanimoto>  (2) 
0.11841381074933252

>  <metric>  (2) 
color

>  <metric_score>  (2) 
0.118

>  <template_pid>  (2) 
6BAW

>  <template_shape_score>  (2) 
0.510

>  <template_color_score>  (2) 
0.118

>  <template_combo_score>  (2) 
0.314

$$$$
6BAW_combo_pose
     RDKit          3D

 30 32  0  0  0  0  0  0  0  0999 V2000
   10.3914   14.6297   23.1894 C   0  0  0  0  0  0  0  0  0  0  0  0
    9.1281   15.0845   23.6952 O   0  0  0  0  0  0  0  0  0  0  0  0
    8.6047   14.4987   24.8723 C   0  0  0  0  0  0  0  0  0  0  0  0
    9.3061   13.6128   25.3853 O   0  0  0  0  0  0  0  0  0  0  0  0
    7.3243   14.9784   25.3581 C   0  0  0  0  0  0  0  0  0  0  0  0
    7.4021   16.0337   26.2802 C   0  0  0  0  0  0  0  0  0  0  0  0
    8.6372   16.5250   26.7108 O   0  0  0  0  0  0  0  0  0  0  0  0
    6.2790   16.6256   26.7965 C   0  0  0  0  0  0  0  0  0  0  0  0
    5.0584   16.1418   26.3726 C   0  0  0  0  0  0  0  0  0  0  0  0
    3.9356   16.7607   26.9125 O   0  0  0  0  0  0  0  0  0  0  0  0
    4.9528   15.0880   25.4521 C   0  0  0  0  0  0  0  0  0  0  0  0
    3.6055   14.6925   25.1023 C   0  0  0  0  0  0  0  0  0  0  0  0
    2.6539   15.3160   25.6447 O   0  0  0  0  0  0  0  0  0  0  0  0
    3.2404   13.6935   24.2272 O   0  0  0  0  0  0  0  0  0  0  0  0
    1.8651   13.4377   23.9980 C   0  0  0  0  0  0  0  0  0  0  0  0
    6.0920   14.4914   24.9324 C   0  0  0  0  0  0  0  0  0  0  0  0
    6.0945   13.3784   23.9891 C   0  0  0  0  0  0  0  0  0  0  0  0
    6.2622   12.0531   24.7190 C   0  0  0  0  0  0  0  0  0  0  0  0
    6.3263   10.8978   23.7785 C   0  0  0  0  0  0  0  0  0  0  0  0
    7.5298   10.5024   23.2644 N   0  0  0  0  0  0  0  0  0  0  0  0
    7.3207    9.4552   22.4694 C   0  0  0  0  0  0  0  0  0  0  0  0
    5.9739    9.1760   22.4736 C   0  0  0  0  0  0  0  0  0  0  0  0
    5.3914   10.0979   23.3020 N   0  0  0  0  0  0  0  0  0  0  0  0
    3.9740   10.0788   23.5526 C   0  0  0  0  0  0  0  0  0  0  0  0
    3.6291    9.1835   24.7000 C   0  0  0  0  0  0  0  0  0  0  0  0
    3.4716    7.8185   24.4401 C   0  0  0  0  0  0  0  0  0  0  0  0
    3.1483    6.9335   25.4673 C   0  0  0  0  0  0  0  0  0  0  0  0
    2.9803    7.4161   26.7673 C   0  0  0  0  0  0  0  0  0  0  0  0
    3.1358    8.7635   27.0226 C   0  0  0  0  0  0  0  0  0  0  0  0
    3.4584    9.6334   25.9865 C   0  0  0  0  0  0  0  0  0  0  0  0
  1  2  1  0
  2  3  1  0
  3  4  2  0
  3  5  1  0
  5  6  2  0
  6  7  1  0
  6  8  1  0
  8  9  2  0
  9 10  1  0
  9 11  1  0
 11 12  1  0
 12 13  2  0
 12 14  1  0
 14 15  1  0
 11 16  2  0
 16 17  1  0
 17 18  1  0
 18 19  1  0
 19 20  2  0
 20 21  1  0
 21 22  2  0
 22 23  1  0
 23 24  1  0
 24 25  1  0
 25 26  2  0
 26 27  1  0
 27 28  2  0
 28 29  1  0
 29 30  2  0
 16  5  1  0
 23 19  1  0
 30 25  1  0
M  END
>  <shape_align_shape_tanimoto>  (3) 
0.65230313858867739

>  <shape_align_color_tanimoto>  (3) 
0.094868802734738883

>  <metric>  (3) 
combo

>  <metric_score>  (3) 
0.374

>  <template_pid>  (3) 
6BAW

>  <template_shape_score>  (3) 
0.652

>  <template_color_score>  (3) 
0.095

>  <template_combo_score>  (3) 
0.374

$$$$
