4IGT_shape_pose
     RDKit          3D

 17 16  0  0  0  0  0  0  0  0999 V2000
   25.3044   -2.2166   10.3862 C   0  0  0  0  0  0  0  0  0  0  0  0
   24.8560   -1.1230   11.2617 N   0  0  0  0  0  0  0  0  0  0  0  0
   25.4759    0.0701   11.1336 O   0  0  0  0  0  0  0  0  0  0  0  0
   23.7925   -1.3423   12.2126 C   0  0  0  0  0  0  0  0  0  0  0  0
   23.4872   -0.3449   12.9101 O   0  0  0  0  0  0  0  0  0  0  0  0
   23.1893   -2.6656   12.2856 C   0  0  0  0  0  0  0  0  0  0  0  0
   21.7286   -2.8454   12.3619 C   0  0  0  0  0  0  0  0  0  0  0  0
   20.8323   -2.5007   11.2637 C   0  0  2  0  0  0  0  0  0  0  0  0
   21.0623   -3.1809    9.9401 C   0  0  0  0  0  0  0  0  0  0  0  0
   20.9527   -4.6503    9.8863 C   0  0  2  0  0  0  0  0  0  0  0  0
   19.6221   -5.1313   10.2971 N   0  0  0  0  0  0  0  0  0  0  0  0
   22.0523   -5.4541   10.4025 C   0  0  0  0  0  0  0  0  0  0  0  0
   22.0479   -6.1557   11.4414 O   0  0  0  0  0  0  0  0  0  0  0  0
   23.2561   -5.4559    9.6702 O   0  0  0  0  0  0  0  0  0  0  0  0
   20.5080   -1.1082   11.0613 C   0  0  0  0  0  0  0  0  0  0  0  0
   19.3599   -0.9011   10.4598 O   0  0  0  0  0  0  0  0  0  0  0  0
   21.1647    0.0399   11.3734 O   0  0  0  0  0  0  0  0  0  0  0  0
  1  2  1  0
  2  3  1  0
  2  4  1  0
  4  5  2  0
  4  6  1  0
  6  7  1  0
  8  7  1  1
  8  9  1  0
  9 10  1  0
 10 11  1  1
 10 12  1  0
 12 13  2  0
 12 14  1  0
  8 15  1  0
 15 16  2  0
 15 17  1  0
M  CHG  3  11   1  14  -1  17  -1
M  END
>  <shape_align_shape_tanimoto>  (1) 
0.69419435486323466

>  <shape_align_color_tanimoto>  (1) 
0.05146733284456622

>  <metric>  (1) 
shape

>  <metric_score>  (1) 
0.694

>  <template_pid>  (1) 
4IGT

>  <template_shape_score>  (1) 
0.694

>  <template_color_score>  (1) 
0.051

>  <template_combo_score>  (1) 
0.373

$$$$
4IGT_color_pose
     RDKit          3D

 17 16  0  0  0  0  0  0  0  0999 V2000
   25.0199    1.4174    9.6348 C   0  0  0  0  0  0  0  0  0  0  0  0
   24.8848    1.2145   11.0631 N   0  0  0  0  0  0  0  0  0  0  0  0
   24.7001    2.3329   11.8366 O   0  0  0  0  0  0  0  0  0  0  0  0
   24.9415   -0.0916   11.6392 C   0  0  0  0  0  0  0  0  0  0  0  0
   24.8125   -0.1508   12.8888 O   0  0  0  0  0  0  0  0  0  0  0  0
   25.1452   -1.2281   10.7481 C   0  0  0  0  0  0  0  0  0  0  0  0
   24.7734   -2.5697   11.2029 C   0  0  0  0  0  0  0  0  0  0  0  0
   23.2998   -2.8420   11.4744 C   0  0  2  0  0  0  0  0  0  0  0  0
   22.4717   -2.6405   10.2747 C   0  0  0  0  0  0  0  0  0  0  0  0
   21.0266   -2.9121   10.2736 C   0  0  2  0  0  0  0  0  0  0  0  0
   20.1404   -2.2205   11.1307 N   0  0  0  0  0  0  0  0  0  0  0  0
   20.7297   -4.3921   10.3328 C   0  0  0  0  0  0  0  0  0  0  0  0
   19.6171   -4.7892    9.8967 O   0  0  0  0  0  0  0  0  0  0  0  0
   21.6247   -5.3121   10.8418 O   0  0  0  0  0  0  0  0  0  0  0  0
   22.8683   -2.2137   12.7220 C   0  0  0  0  0  0  0  0  0  0  0  0
   22.0830   -1.2836   12.9058 O   0  0  0  0  0  0  0  0  0  0  0  0
   23.4408   -2.7561   13.9094 O   0  0  0  0  0  0  0  0  0  0  0  0
  1  2  1  0
  2  3  1  0
  2  4  1  0
  4  5  2  0
  4  6  1  0
  6  7  1  0
  8  7  1  6
  8  9  1  0
  9 10  1  0
 10 11  1  1
 10 12  1  0
 12 13  2  0
 12 14  1  0
  8 15  1  0
 15 16  2  0
 15 17  1  0
M  CHG  3  11   1  14  -1  17  -1
M  END
>  <shape_align_shape_tanimoto>  (2) 
0.63611254298832109

>  <shape_align_color_tanimoto>  (2) 
0.19511179414415616

>  <metric>  (2) 
color

>  <metric_score>  (2) 
0.195

>  <template_pid>  (2) 
4IGT

>  <template_shape_score>  (2) 
0.636

>  <template_color_score>  (2) 
0.195

>  <template_combo_score>  (2) 
0.416

$$$$
4IGT_combo_pose
     RDKit          3D

 17 16  0  0  0  0  0  0  0  0999 V2000
   25.0199    1.4174    9.6348 C   0  0  0  0  0  0  0  0  0  0  0  0
   24.8848    1.2145   11.0631 N   0  0  0  0  0  0  0  0  0  0  0  0
   24.7001    2.3329   11.8366 O   0  0  0  0  0  0  0  0  0  0  0  0
   24.9415   -0.0916   11.6392 C   0  0  0  0  0  0  0  0  0  0  0  0
   24.8125   -0.1508   12.8888 O   0  0  0  0  0  0  0  0  0  0  0  0
   25.1452   -1.2281   10.7481 C   0  0  0  0  0  0  0  0  0  0  0  0
   24.7734   -2.5697   11.2029 C   0  0  0  0  0  0  0  0  0  0  0  0
   23.2998   -2.8420   11.4744 C   0  0  2  0  0  0  0  0  0  0  0  0
   22.4717   -2.6405   10.2747 C   0  0  0  0  0  0  0  0  0  0  0  0
   21.0266   -2.9121   10.2736 C   0  0  2  0  0  0  0  0  0  0  0  0
   20.1404   -2.2205   11.1307 N   0  0  0  0  0  0  0  0  0  0  0  0
   20.7297   -4.3921   10.3328 C   0  0  0  0  0  0  0  0  0  0  0  0
   19.6171   -4.7892    9.8967 O   0  0  0  0  0  0  0  0  0  0  0  0
   21.6247   -5.3121   10.8418 O   0  0  0  0  0  0  0  0  0  0  0  0
   22.8683   -2.2137   12.7220 C   0  0  0  0  0  0  0  0  0  0  0  0
   22.0830   -1.2836   12.9058 O   0  0  0  0  0  0  0  0  0  0  0  0
   23.4408   -2.7561   13.9094 O   0  0  0  0  0  0  0  0  0  0  0  0
  1  2  1  0
  2  3  1  0
  2  4  1  0
  4  5  2  0
  4  6  1  0
  6  7  1  0
  8  7  1  6
  8  9  1  0
  9 10  1  0
 10 11  1  1
 10 12  1  0
 12 13  2  0
 12 14  1  0
  8 15  1  0
 15 16  2  0
 15 17  1  0
M  CHG  3  11   1  14  -1  17  -1
M  END
>  <shape_align_shape_tanimoto>  (3) 
0.63611254298832109

>  <shape_align_color_tanimoto>  (3) 
0.19511179414415616

>  <metric>  (3) 
combo

>  <metric_score>  (3) 
0.416

>  <template_pid>  (3) 
4IGT

>  <template_shape_score>  (3) 
0.636

>  <template_color_score>  (3) 
0.195

>  <template_combo_score>  (3) 
0.416

$$$$
