4OMD_shape_pose
     RDKit          3D

 49 50  0  0  0  0  0  0  0  0999 V2000
   43.7618   51.5798   34.0103 C   0  0  0  0  0  0  0  0  0  0  0  0
   44.3829   51.8505   35.3413 C   0  0  0  0  0  0  0  0  0  0  0  0
   44.5837   53.3314   35.5913 C   0  0  0  0  0  0  0  0  0  0  0  0
   45.6310   51.0609   35.5299 C   0  0  2  0  0  0  0  0  0  0  0  0
   46.2195   51.3428   36.8645 N   0  0  0  0  0  0  0  0  0  0  0  0
   46.7787   50.2626   37.5379 C   0  0  0  0  0  0  0  0  0  0  0  0
   46.6952   49.1223   36.8950 O   0  0  0  0  0  0  0  0  0  0  0  0
   47.4455   50.1613   38.8210 C   0  0  2  0  0  0  0  0  0  0  0  0
   48.6009   51.0330   39.1088 C   0  0  0  0  0  0  0  0  0  0  0  0
   48.4755   52.4904   39.1615 C   0  0  0  0  0  0  0  0  0  0  0  0
   47.6094   53.1040   40.1935 C   0  0  0  0  0  0  0  0  0  0  0  0
   46.2140   52.8245   40.1791 N   0  0  0  0  0  0  0  0  0  0  0  0
   45.4302   53.3920   41.2537 C   0  0  0  0  0  0  0  0  0  0  0  0
   44.0293   53.1572   41.3223 N   0  0  0  0  0  0  0  0  0  0  0  0
   45.9476   54.1148   42.1811 N   0  0  0  0  0  0  0  0  0  0  0  0
   47.8667   48.7323   38.9168 N   0  0  0  0  0  0  0  0  0  0  0  0
   47.8176   48.0581   40.1593 C   0  0  0  0  0  0  0  0  0  0  0  0
   47.4383   48.5905   41.2355 O   0  0  0  0  0  0  0  0  0  0  0  0
   48.2455   46.6419   40.1843 C   0  0  0  0  0  0  0  0  0  0  0  0
   48.2855   46.0624   41.5499 C   0  0  0  0  0  0  0  0  0  0  0  0
   47.2049   45.4963   42.1800 C   0  0  0  0  0  0  0  0  0  0  0  0
   47.3863   44.9852   43.4414 C   0  0  0  0  0  0  0  0  0  0  0  0
   48.5948   45.0074   44.1134 C   0  0  0  0  0  0  0  0  0  0  0  0
   49.6790   45.5856   43.4576 C   0  0  0  0  0  0  0  0  0  0  0  0
   49.5443   46.1184   42.1761 C   0  0  0  0  0  0  0  0  0  0  0  0
   46.7060   51.3828   34.5152 C   0  0  0  0  0  0  0  0  0  0  0  0
   47.6443   52.1042   34.9771 O   0  0  0  0  0  0  0  0  0  0  0  0
   46.6730   50.9113   33.1768 N   0  0  0  0  0  0  0  0  0  0  0  0
   47.7556   51.2548   32.3189 C   0  0  1  0  0  0  0  0  0  0  0  0
   47.7711   52.6288   31.7506 C   0  0  0  0  0  0  0  0  0  0  0  0
   46.6006   52.9941   30.8862 C   0  0  0  0  0  0  0  0  0  0  0  0
   46.4825   52.0788   29.6836 C   0  0  0  0  0  0  0  0  0  0  0  0
   45.3439   52.4608   28.8280 N   0  0  0  0  0  0  0  0  0  0  0  0
   45.1266   51.6691   27.6584 C   0  0  0  0  0  0  0  0  0  0  0  0
   44.0101   52.0793   26.8450 N   0  0  0  0  0  0  0  0  0  0  0  0
   45.8475   50.6705   27.3208 N   0  0  0  0  0  0  0  0  0  0  0  0
   49.1110   50.9399   32.8766 C   0  0  0  0  0  0  0  0  0  0  0  0
   50.0824   51.4504   32.2201 O   0  0  0  0  0  0  0  0  0  0  0  0
   49.3153   50.1471   34.0275 N   0  0  0  0  0  0  0  0  0  0  0  0
   50.6076   49.8363   34.5998 C   0  0  0  0  0  0  0  0  0  0  0  0
   51.2268   48.7657   33.7841 C   0  0  0  0  0  0  0  0  0  0  0  0
   52.1203   49.0175   32.7512 C   0  0  0  0  0  0  0  0  0  0  0  0
   52.6377   47.9134   32.0647 C   0  0  0  0  0  0  0  0  0  0  0  0
   52.2756   46.6182   32.3997 C   0  0  0  0  0  0  0  0  0  0  0  0
   52.8505   45.4870   31.6743 C   0  0  0  0  0  0  0  0  0  0  0  0
   53.3536   45.6141   30.3380 N   0  0  0  0  0  0  0  0  0  0  0  0
   52.9236   44.3118   32.2470 N   0  0  0  0  0  0  0  0  0  0  0  0
   51.3882   46.3688   33.4240 C   0  0  0  0  0  0  0  0  0  0  0  0
   50.8777   47.4545   34.1009 C   0  0  0  0  0  0  0  0  0  0  0  0
  1  2  1  0
  2  3  1  0
  2  4  1  0
  4  5  1  1
  5  6  1  0
  6  7  2  0
  6  8  1  0
  8  9  1  6
  9 10  1  0
 10 11  1  0
 11 12  1  0
 12 13  1  0
 13 14  1  0
 13 15  2  0
  8 16  1  0
 16 17  1  0
 17 18  2  0
 17 19  1  0
 19 20  1  0
 20 21  2  0
 21 22  1  0
 22 23  2  0
 23 24  1  0
 24 25  2  0
  4 26  1  0
 26 27  2  0
 26 28  1  0
 28 29  1  0
 29 30  1  1
 30 31  1  0
 31 32  1  0
 32 33  1  0
 33 34  1  0
 34 35  1  0
 34 36  2  0
 29 37  1  0
 37 38  2  0
 37 39  1  0
 39 40  1  0
 40 41  1  0
 41 42  2  0
 42 43  1  0
 43 44  2  0
 44 45  1  0
 45 46  1  0
 45 47  2  0
 44 48  1  0
 48 49  2  0
 25 20  1  0
 49 41  1  0
M  CHG  3  15   1  36   1  47   1
M  END
>  <shape_align_shape_tanimoto>  (1) 
0.44039174564452643

>  <shape_align_color_tanimoto>  (1) 
0.0008479703375667407

>  <metric>  (1) 
shape

>  <metric_score>  (1) 
0.440

>  <template_pid>  (1) 
4OMD

>  <template_shape_score>  (1) 
0.440

>  <template_color_score>  (1) 
0.001

>  <template_combo_score>  (1) 
0.221

$$$$
4OMD_color_pose
     RDKit          3D

 49 50  0  0  0  0  0  0  0  0999 V2000
   49.3857   52.9019   37.3713 C   0  0  0  0  0  0  0  0  0  0  0  0
   47.8824   52.7576   37.5046 C   0  0  0  0  0  0  0  0  0  0  0  0
   47.5123   53.0831   38.9266 C   0  0  0  0  0  0  0  0  0  0  0  0
   47.4207   51.3916   37.1865 C   0  0  2  0  0  0  0  0  0  0  0  0
   47.9885   50.3817   38.0491 N   0  0  0  0  0  0  0  0  0  0  0  0
   47.1641   49.3010   38.4751 C   0  0  0  0  0  0  0  0  0  0  0  0
   45.9572   49.1879   38.1208 O   0  0  0  0  0  0  0  0  0  0  0  0
   47.7954   48.2607   39.3922 C   0  0  2  0  0  0  0  0  0  0  0  0
   46.9355   48.1437   40.5954 C   0  0  0  0  0  0  0  0  0  0  0  0
   47.5290   47.0905   41.5414 C   0  0  0  0  0  0  0  0  0  0  0  0
   46.6637   46.9488   42.7589 C   0  0  0  0  0  0  0  0  0  0  0  0
   47.1806   45.9518   43.6419 N   0  0  0  0  0  0  0  0  0  0  0  0
   47.1600   44.5722   43.3699 C   0  0  0  0  0  0  0  0  0  0  0  0
   47.7355   43.7263   44.3993 N   0  0  0  0  0  0  0  0  0  0  0  0
   46.6912   44.0092   42.3347 N   0  0  0  0  0  0  0  0  0  0  0  0
   49.1169   48.6899   39.7610 N   0  0  0  0  0  0  0  0  0  0  0  0
   50.3301   48.0727   39.4549 C   0  0  0  0  0  0  0  0  0  0  0  0
   50.4243   47.0070   38.7948 O   0  0  0  0  0  0  0  0  0  0  0  0
   51.5869   48.7206   39.9389 C   0  0  0  0  0  0  0  0  0  0  0  0
   52.7244   47.8918   39.4702 C   0  0  0  0  0  0  0  0  0  0  0  0
   53.1864   46.8292   40.2400 C   0  0  0  0  0  0  0  0  0  0  0  0
   54.2450   46.1056   39.7467 C   0  0  0  0  0  0  0  0  0  0  0  0
   54.8696   46.3654   38.5506 C   0  0  0  0  0  0  0  0  0  0  0  0
   54.3923   47.4235   37.8079 C   0  0  0  0  0  0  0  0  0  0  0  0
   53.3159   48.1997   38.2569 C   0  0  0  0  0  0  0  0  0  0  0  0
   47.7109   50.9779   35.7673 C   0  0  0  0  0  0  0  0  0  0  0  0
   48.2685   49.8487   35.6573 O   0  0  0  0  0  0  0  0  0  0  0  0
   47.3597   51.8301   34.7343 N   0  0  0  0  0  0  0  0  0  0  0  0
   47.5418   51.6584   33.3180 C   0  0  1  0  0  0  0  0  0  0  0  0
   48.6315   50.7463   32.8597 C   0  0  0  0  0  0  0  0  0  0  0  0
   50.0087   51.1337   33.3437 C   0  0  0  0  0  0  0  0  0  0  0  0
   51.1165   50.3477   32.7591 C   0  0  0  0  0  0  0  0  0  0  0  0
   51.1031   48.9458   32.7792 N   0  0  0  0  0  0  0  0  0  0  0  0
   51.0144   48.0497   33.8441 C   0  0  0  0  0  0  0  0  0  0  0  0
   51.0425   46.6306   33.5306 N   0  0  0  0  0  0  0  0  0  0  0  0
   50.9276   48.3662   35.0374 N   0  0  0  0  0  0  0  0  0  0  0  0
   46.2519   51.2924   32.6934 C   0  0  0  0  0  0  0  0  0  0  0  0
   45.2213   51.5547   33.4150 O   0  0  0  0  0  0  0  0  0  0  0  0
   46.0161   50.7036   31.4527 N   0  0  0  0  0  0  0  0  0  0  0  0
   44.6986   50.3716   30.9212 C   0  0  0  0  0  0  0  0  0  0  0  0
   44.0304   49.2845   31.6306 C   0  0  0  0  0  0  0  0  0  0  0  0
   43.0778   49.6573   32.5954 C   0  0  0  0  0  0  0  0  0  0  0  0
   42.4062   48.7336   33.3586 C   0  0  0  0  0  0  0  0  0  0  0  0
   42.6352   47.3916   33.2131 C   0  0  0  0  0  0  0  0  0  0  0  0
   41.8907   46.4791   34.0553 C   0  0  0  0  0  0  0  0  0  0  0  0
   41.5015   46.9227   35.3447 N   0  0  0  0  0  0  0  0  0  0  0  0
   41.5759   45.2884   33.6641 N   0  0  0  0  0  0  0  0  0  0  0  0
   43.5653   47.0039   32.2707 C   0  0  0  0  0  0  0  0  0  0  0  0
   44.2457   47.9489   31.4967 C   0  0  0  0  0  0  0  0  0  0  0  0
  1  2  1  0
  2  3  1  0
  2  4  1  0
  4  5  1  1
  5  6  1  0
  6  7  2  0
  6  8  1  0
  8  9  1  1
  9 10  1  0
 10 11  1  0
 11 12  1  0
 12 13  1  0
 13 14  1  0
 13 15  2  0
  8 16  1  0
 16 17  1  0
 17 18  2  0
 17 19  1  0
 19 20  1  0
 20 21  2  0
 21 22  1  0
 22 23  2  0
 23 24  1  0
 24 25  2  0
  4 26  1  0
 26 27  2  0
 26 28  1  0
 28 29  1  0
 29 30  1  1
 30 31  1  0
 31 32  1  0
 32 33  1  0
 33 34  1  0
 34 35  1  0
 34 36  2  0
 29 37  1  0
 37 38  2  0
 37 39  1  0
 39 40  1  0
 40 41  1  0
 41 42  2  0
 42 43  1  0
 43 44  2  0
 44 45  1  0
 45 46  1  0
 45 47  2  0
 44 48  1  0
 48 49  2  0
 25 20  1  0
 49 41  1  0
M  CHG  3  15   1  36   1  47   1
M  END
>  <shape_align_shape_tanimoto>  (2) 
0.31396190453250294

>  <shape_align_color_tanimoto>  (2) 
0.033501411214162113

>  <metric>  (2) 
color

>  <metric_score>  (2) 
0.034

>  <template_pid>  (2) 
4OMD

>  <template_shape_score>  (2) 
0.314

>  <template_color_score>  (2) 
0.034

>  <template_combo_score>  (2) 
0.174

$$$$
4OMD_combo_pose
     RDKit          3D

 49 50  0  0  0  0  0  0  0  0999 V2000
   43.7618   51.5798   34.0103 C   0  0  0  0  0  0  0  0  0  0  0  0
   44.3829   51.8505   35.3413 C   0  0  0  0  0  0  0  0  0  0  0  0
   44.5837   53.3314   35.5913 C   0  0  0  0  0  0  0  0  0  0  0  0
   45.6310   51.0609   35.5299 C   0  0  2  0  0  0  0  0  0  0  0  0
   46.2195   51.3428   36.8645 N   0  0  0  0  0  0  0  0  0  0  0  0
   46.7787   50.2626   37.5379 C   0  0  0  0  0  0  0  0  0  0  0  0
   46.6952   49.1223   36.8950 O   0  0  0  0  0  0  0  0  0  0  0  0
   47.4455   50.1613   38.8210 C   0  0  2  0  0  0  0  0  0  0  0  0
   48.6009   51.0330   39.1088 C   0  0  0  0  0  0  0  0  0  0  0  0
   48.4755   52.4904   39.1615 C   0  0  0  0  0  0  0  0  0  0  0  0
   47.6094   53.1040   40.1935 C   0  0  0  0  0  0  0  0  0  0  0  0
   46.2140   52.8245   40.1791 N   0  0  0  0  0  0  0  0  0  0  0  0
   45.4302   53.3920   41.2537 C   0  0  0  0  0  0  0  0  0  0  0  0
   44.0293   53.1572   41.3223 N   0  0  0  0  0  0  0  0  0  0  0  0
   45.9476   54.1148   42.1811 N   0  0  0  0  0  0  0  0  0  0  0  0
   47.8667   48.7323   38.9168 N   0  0  0  0  0  0  0  0  0  0  0  0
   47.8176   48.0581   40.1593 C   0  0  0  0  0  0  0  0  0  0  0  0
   47.4383   48.5905   41.2355 O   0  0  0  0  0  0  0  0  0  0  0  0
   48.2455   46.6419   40.1843 C   0  0  0  0  0  0  0  0  0  0  0  0
   48.2855   46.0624   41.5499 C   0  0  0  0  0  0  0  0  0  0  0  0
   47.2049   45.4963   42.1800 C   0  0  0  0  0  0  0  0  0  0  0  0
   47.3863   44.9852   43.4414 C   0  0  0  0  0  0  0  0  0  0  0  0
   48.5948   45.0074   44.1134 C   0  0  0  0  0  0  0  0  0  0  0  0
   49.6790   45.5856   43.4576 C   0  0  0  0  0  0  0  0  0  0  0  0
   49.5443   46.1184   42.1761 C   0  0  0  0  0  0  0  0  0  0  0  0
   46.7060   51.3828   34.5152 C   0  0  0  0  0  0  0  0  0  0  0  0
   47.6443   52.1042   34.9771 O   0  0  0  0  0  0  0  0  0  0  0  0
   46.6730   50.9113   33.1768 N   0  0  0  0  0  0  0  0  0  0  0  0
   47.7556   51.2548   32.3189 C   0  0  1  0  0  0  0  0  0  0  0  0
   47.7711   52.6288   31.7506 C   0  0  0  0  0  0  0  0  0  0  0  0
   46.6006   52.9941   30.8862 C   0  0  0  0  0  0  0  0  0  0  0  0
   46.4825   52.0788   29.6836 C   0  0  0  0  0  0  0  0  0  0  0  0
   45.3439   52.4608   28.8280 N   0  0  0  0  0  0  0  0  0  0  0  0
   45.1266   51.6691   27.6584 C   0  0  0  0  0  0  0  0  0  0  0  0
   44.0101   52.0793   26.8450 N   0  0  0  0  0  0  0  0  0  0  0  0
   45.8475   50.6705   27.3208 N   0  0  0  0  0  0  0  0  0  0  0  0
   49.1110   50.9399   32.8766 C   0  0  0  0  0  0  0  0  0  0  0  0
   50.0824   51.4504   32.2201 O   0  0  0  0  0  0  0  0  0  0  0  0
   49.3153   50.1471   34.0275 N   0  0  0  0  0  0  0  0  0  0  0  0
   50.6076   49.8363   34.5998 C   0  0  0  0  0  0  0  0  0  0  0  0
   51.2268   48.7657   33.7841 C   0  0  0  0  0  0  0  0  0  0  0  0
   52.1203   49.0175   32.7512 C   0  0  0  0  0  0  0  0  0  0  0  0
   52.6377   47.9134   32.0647 C   0  0  0  0  0  0  0  0  0  0  0  0
   52.2756   46.6182   32.3997 C   0  0  0  0  0  0  0  0  0  0  0  0
   52.8505   45.4870   31.6743 C   0  0  0  0  0  0  0  0  0  0  0  0
   53.3536   45.6141   30.3380 N   0  0  0  0  0  0  0  0  0  0  0  0
   52.9236   44.3118   32.2470 N   0  0  0  0  0  0  0  0  0  0  0  0
   51.3882   46.3688   33.4240 C   0  0  0  0  0  0  0  0  0  0  0  0
   50.8777   47.4545   34.1009 C   0  0  0  0  0  0  0  0  0  0  0  0
  1  2  1  0
  2  3  1  0
  2  4  1  0
  4  5  1  1
  5  6  1  0
  6  7  2  0
  6  8  1  0
  8  9  1  6
  9 10  1  0
 10 11  1  0
 11 12  1  0
 12 13  1  0
 13 14  1  0
 13 15  2  0
  8 16  1  0
 16 17  1  0
 17 18  2  0
 17 19  1  0
 19 20  1  0
 20 21  2  0
 21 22  1  0
 22 23  2  0
 23 24  1  0
 24 25  2  0
  4 26  1  0
 26 27  2  0
 26 28  1  0
 28 29  1  0
 29 30  1  1
 30 31  1  0
 31 32  1  0
 32 33  1  0
 33 34  1  0
 34 35  1  0
 34 36  2  0
 29 37  1  0
 37 38  2  0
 37 39  1  0
 39 40  1  0
 40 41  1  0
 41 42  2  0
 42 43  1  0
 43 44  2  0
 44 45  1  0
 45 46  1  0
 45 47  2  0
 44 48  1  0
 48 49  2  0
 25 20  1  0
 49 41  1  0
M  CHG  3  15   1  36   1  47   1
M  END
>  <shape_align_shape_tanimoto>  (3) 
0.44039174564452643

>  <shape_align_color_tanimoto>  (3) 
0.0008479703375667407

>  <metric>  (3) 
combo

>  <metric_score>  (3) 
0.221

>  <template_pid>  (3) 
4OMD

>  <template_shape_score>  (3) 
0.440

>  <template_color_score>  (3) 
0.001

>  <template_combo_score>  (3) 
0.221

$$$$
