6MO7_shape_pose
     RDKit          3D

 27 29  0  0  0  0  0  0  0  0999 V2000
   -8.7683   -5.2100    5.7977 C   0  0  0  0  0  0  0  0  0  0  0  0
   -7.8818   -6.3032    5.2814 C   0  0  0  0  0  0  0  0  0  0  0  0
   -7.7132   -7.3318    5.9522 O   0  0  0  0  0  0  0  0  0  0  0  0
   -7.2682   -6.1237    4.0470 N   0  0  0  0  0  0  0  0  0  0  0  0
   -6.4060   -7.1010    3.4645 C   0  0  0  0  0  0  0  0  0  0  0  0
   -6.9978   -8.4189    3.2057 C   0  0  0  0  0  0  0  0  0  0  0  0
   -6.8588   -9.5479    3.8603 O   0  0  0  0  0  0  0  0  0  0  0  0
   -7.5385  -10.5133    3.3370 N   0  0  0  0  0  0  0  0  0  0  0  0
   -8.1850  -10.0300    2.2608 C   0  0  0  0  0  0  0  0  0  0  0  0
   -9.0973  -10.7471    1.3194 C   0  0  0  0  0  0  0  0  0  0  0  0
   -7.8509   -8.6917    2.1615 C   0  0  0  0  0  0  0  0  0  0  0  0
   -8.3315   -7.7976    1.1392 C   0  0  0  0  0  0  0  0  0  0  0  0
   -9.4760   -7.0906    1.3308 C   0  0  0  0  0  0  0  0  0  0  0  0
   -9.8989   -6.2490    0.3288 C   0  0  0  0  0  0  0  0  0  0  0  0
   -9.1980   -6.0991   -0.8655 C   0  0  0  0  0  0  0  0  0  0  0  0
   -9.7202   -5.1639   -1.9013 C   0  0  0  0  0  0  0  0  0  0  0  0
   -8.0242   -6.8214   -1.0667 C   0  0  0  0  0  0  0  0  0  0  0  0
   -7.2014   -6.6095   -2.5671 S   0  0  0  0  0  0  0  0  0  0  0  0
   -7.0380   -5.1619   -2.9406 O   0  0  0  0  0  0  0  0  0  0  0  0
   -8.1337   -7.1766   -3.6391 O   0  0  0  0  0  0  0  0  0  0  0  0
   -5.7747   -7.4938   -2.6313 N   0  0  0  0  0  0  0  0  0  0  0  0
   -4.7460   -7.2192   -1.7095 C   0  0  0  0  0  0  0  0  0  0  0  0
   -3.6355   -6.4992   -2.5199 C   0  0  0  0  0  0  0  0  0  0  0  0
   -2.5938   -7.5610   -2.7921 C   0  0  0  0  0  0  0  0  0  0  0  0
   -2.7648   -8.6188   -1.7473 C   0  0  0  0  0  0  0  0  0  0  0  0
   -4.0629   -8.3447   -1.0410 C   0  0  0  0  0  0  0  0  0  0  0  0
   -7.6370   -7.6485   -0.0456 C   0  0  0  0  0  0  0  0  0  0  0  0
  1  2  1  0
  2  3  2  0
  2  4  1  0
  4  5  1  0
  5  6  1  0
  6  7  1  0
  7  8  1  0
  8  9  2  0
  9 10  1  0
  9 11  1  0
 11 12  1  0
 12 13  2  0
 13 14  1  0
 14 15  2  0
 15 16  1  0
 15 17  1  0
 17 18  1  0
 18 19  2  0
 18 20  2  0
 18 21  1  0
 21 22  1  0
 22 23  1  0
 23 24  1  0
 24 25  1  0
 25 26  1  0
 17 27  2  0
 11  6  2  0
 27 12  1  0
 26 22  1  0
M  END
>  <shape_align_shape_tanimoto>  (1) 
0.64448994482098254

>  <shape_align_color_tanimoto>  (1) 
0.050998766844678071

>  <metric>  (1) 
shape

>  <metric_score>  (1) 
0.644

>  <template_pid>  (1) 
6MO7

>  <template_shape_score>  (1) 
0.644

>  <template_color_score>  (1) 
0.051

>  <template_combo_score>  (1) 
0.348

$$$$
6MO7_color_pose
     RDKit          3D

 27 29  0  0  0  0  0  0  0  0999 V2000
   -5.6742   -2.1312   -0.5376 C   0  0  0  0  0  0  0  0  0  0  0  0
   -4.9265   -3.2286    0.1423 C   0  0  0  0  0  0  0  0  0  0  0  0
   -4.5236   -3.0690    1.3243 O   0  0  0  0  0  0  0  0  0  0  0  0
   -4.6755   -4.4438   -0.5489 N   0  0  0  0  0  0  0  0  0  0  0  0
   -3.9452   -5.5574    0.0654 C   0  0  0  0  0  0  0  0  0  0  0  0
   -3.8462   -6.6962   -0.9146 C   0  0  0  0  0  0  0  0  0  0  0  0
   -2.7628   -7.0257   -1.6152 O   0  0  0  0  0  0  0  0  0  0  0  0
   -3.0241   -8.0600   -2.3679 N   0  0  0  0  0  0  0  0  0  0  0  0
   -4.3126   -8.4336   -2.1677 C   0  0  0  0  0  0  0  0  0  0  0  0
   -5.0385   -9.5551   -2.8092 C   0  0  0  0  0  0  0  0  0  0  0  0
   -4.8604   -7.5727   -1.2387 C   0  0  0  0  0  0  0  0  0  0  0  0
   -6.2199   -7.5654   -0.6865 C   0  0  0  0  0  0  0  0  0  0  0  0
   -7.2514   -6.8500   -1.2349 C   0  0  0  0  0  0  0  0  0  0  0  0
   -8.4840   -6.9258   -0.6265 C   0  0  0  0  0  0  0  0  0  0  0  0
   -8.7170   -7.6922    0.5096 C   0  0  0  0  0  0  0  0  0  0  0  0
  -10.0622   -7.7439    1.1302 C   0  0  0  0  0  0  0  0  0  0  0  0
   -7.6603   -8.4018    1.0396 C   0  0  0  0  0  0  0  0  0  0  0  0
   -7.9309   -9.3720    2.4668 S   0  0  0  0  0  0  0  0  0  0  0  0
   -8.9867  -10.4145    2.2177 O   0  0  0  0  0  0  0  0  0  0  0  0
   -6.6718  -10.0819    2.8449 O   0  0  0  0  0  0  0  0  0  0  0  0
   -8.4597   -8.3921    3.7735 N   0  0  0  0  0  0  0  0  0  0  0  0
   -7.5233   -7.4000    4.1683 C   0  0  0  0  0  0  0  0  0  0  0  0
   -8.1519   -6.0253    4.0027 C   0  0  0  0  0  0  0  0  0  0  0  0
   -7.0914   -5.1501    4.6493 C   0  0  0  0  0  0  0  0  0  0  0  0
   -6.4445   -6.0070    5.7047 C   0  0  0  0  0  0  0  0  0  0  0  0
   -7.1363   -7.3736    5.6080 C   0  0  0  0  0  0  0  0  0  0  0  0
   -6.4115   -8.3415    0.4455 C   0  0  0  0  0  0  0  0  0  0  0  0
  1  2  1  0
  2  3  2  0
  2  4  1  0
  4  5  1  0
  5  6  1  0
  6  7  1  0
  7  8  1  0
  8  9  2  0
  9 10  1  0
  9 11  1  0
 11 12  1  0
 12 13  2  0
 13 14  1  0
 14 15  2  0
 15 16  1  0
 15 17  1  0
 17 18  1  0
 18 19  2  0
 18 20  2  0
 18 21  1  0
 21 22  1  0
 22 23  1  0
 23 24  1  0
 24 25  1  0
 25 26  1  0
 17 27  2  0
 11  6  2  0
 27 12  1  0
 26 22  1  0
M  END
>  <shape_align_shape_tanimoto>  (2) 
0.57504504631779296

>  <shape_align_color_tanimoto>  (2) 
0.27123613929482054

>  <metric>  (2) 
color

>  <metric_score>  (2) 
0.271

>  <template_pid>  (2) 
6MO7

>  <template_shape_score>  (2) 
0.575

>  <template_color_score>  (2) 
0.271

>  <template_combo_score>  (2) 
0.423

$$$$
6MO7_combo_pose
     RDKit          3D

 27 29  0  0  0  0  0  0  0  0999 V2000
   -6.0093   -7.7096   -6.0762 C   0  0  0  0  0  0  0  0  0  0  0  0
   -5.1458   -8.2490   -4.9934 C   0  0  0  0  0  0  0  0  0  0  0  0
   -3.9001   -8.0095   -5.0258 O   0  0  0  0  0  0  0  0  0  0  0  0
   -5.7111   -9.0266   -3.9308 N   0  0  0  0  0  0  0  0  0  0  0  0
   -4.7827   -9.5090   -2.9193 C   0  0  0  0  0  0  0  0  0  0  0  0
   -4.0817   -8.4061   -2.2311 C   0  0  0  0  0  0  0  0  0  0  0  0
   -2.8484   -7.9832   -2.3817 O   0  0  0  0  0  0  0  0  0  0  0  0
   -2.5801   -6.9782   -1.5955 N   0  0  0  0  0  0  0  0  0  0  0  0
   -3.6789   -6.6943   -0.8685 C   0  0  0  0  0  0  0  0  0  0  0  0
   -3.8443   -5.6261    0.1605 C   0  0  0  0  0  0  0  0  0  0  0  0
   -4.6558   -7.6137   -1.2735 C   0  0  0  0  0  0  0  0  0  0  0  0
   -5.9865   -7.6150   -0.7032 C   0  0  0  0  0  0  0  0  0  0  0  0
   -6.9740   -6.8642   -1.2695 C   0  0  0  0  0  0  0  0  0  0  0  0
   -8.2489   -6.8518   -0.7400 C   0  0  0  0  0  0  0  0  0  0  0  0
   -8.5616   -7.6081    0.3901 C   0  0  0  0  0  0  0  0  0  0  0  0
   -9.9556   -7.5305    0.8848 C   0  0  0  0  0  0  0  0  0  0  0  0
   -7.5774   -8.3631    0.9635 C   0  0  0  0  0  0  0  0  0  0  0  0
   -7.9595   -9.3156    2.3838 S   0  0  0  0  0  0  0  0  0  0  0  0
   -9.0360  -10.3201    2.0898 O   0  0  0  0  0  0  0  0  0  0  0  0
   -6.7671  -10.0732    2.8738 O   0  0  0  0  0  0  0  0  0  0  0  0
   -8.5008   -8.3180    3.6770 N   0  0  0  0  0  0  0  0  0  0  0  0
   -7.4214   -7.4165    4.0109 C   0  0  0  0  0  0  0  0  0  0  0  0
   -7.0537   -7.6405    5.4560 C   0  0  0  0  0  0  0  0  0  0  0  0
   -7.2080   -6.3320    6.1574 C   0  0  0  0  0  0  0  0  0  0  0  0
   -7.2880   -5.2712    5.1065 C   0  0  0  0  0  0  0  0  0  0  0  0
   -7.7569   -5.9729    3.8412 C   0  0  0  0  0  0  0  0  0  0  0  0
   -6.3088   -8.3612    0.4179 C   0  0  0  0  0  0  0  0  0  0  0  0
  1  2  1  0
  2  3  2  0
  2  4  1  0
  4  5  1  0
  5  6  1  0
  6  7  1  0
  7  8  1  0
  8  9  2  0
  9 10  1  0
  9 11  1  0
 11 12  1  0
 12 13  2  0
 13 14  1  0
 14 15  2  0
 15 16  1  0
 15 17  1  0
 17 18  1  0
 18 19  2  0
 18 20  2  0
 18 21  1  0
 21 22  1  0
 22 23  1  0
 23 24  1  0
 24 25  1  0
 25 26  1  0
 17 27  2  0
 11  6  2  0
 27 12  1  0
 26 22  1  0
M  END
>  <shape_align_shape_tanimoto>  (3) 
0.59118529203918846

>  <shape_align_color_tanimoto>  (3) 
0.2599045815895919

>  <metric>  (3) 
combo

>  <metric_score>  (3) 
0.426

>  <template_pid>  (3) 
6MO7

>  <template_shape_score>  (3) 
0.591

>  <template_color_score>  (3) 
0.260

>  <template_combo_score>  (3) 
0.426

$$$$
