5ICY_shape_pose
     RDKit          3D

 95 95  0  0  0  0  0  0  0  0999 V2000
  -24.4919   50.8571   -5.2546 C   0  0  0  0  0  0  0  0  0  0  0  0
  -24.3597   49.5147   -4.5774 C   0  0  0  0  0  0  0  0  0  0  0  0
  -23.0287   49.5294   -3.8182 C   0  0  0  0  0  0  0  0  0  0  0  0
  -25.4178   49.2456   -3.5799 C   0  0  0  0  0  0  0  0  0  0  0  0
  -26.8402   49.2250   -4.0965 C   0  0  2  0  0  0  0  0  0  0  0  0
  -27.0073   48.1833   -5.1140 N   0  0  0  0  0  0  0  0  0  0  0  0
  -27.5065   46.9486   -4.6764 C   0  0  0  0  0  0  0  0  0  0  0  0
  -27.8139   46.7125   -3.4495 O   0  0  0  0  0  0  0  0  0  0  0  0
  -27.7414   45.7426   -5.5691 C   0  0  2  0  0  0  0  0  0  0  0  0
  -26.8513   44.7140   -4.9495 C   0  0  0  0  0  0  0  0  0  0  0  0
  -26.8013   43.3237   -5.3752 C   0  0  0  0  0  0  0  0  0  0  0  0
  -28.1331   42.5854   -5.2345 C   0  0  0  0  0  0  0  0  0  0  0  0
  -27.8517   41.2304   -5.7341 N   0  0  0  0  0  0  0  0  0  0  0  0
  -28.8145   40.2151   -5.7053 C   0  0  0  0  0  0  0  0  0  0  0  0
  -28.5119   38.8938   -6.1985 N   0  0  0  0  0  0  0  0  0  0  0  0
  -29.9953   40.4288   -5.2333 N   0  0  0  0  0  0  0  0  0  0  0  0
  -27.5449   46.1245   -6.9262 N   0  0  0  0  0  0  0  0  0  0  0  0
  -26.7565   45.6979   -7.9613 C   0  0  0  0  0  0  0  0  0  0  0  0
  -25.9271   44.7319   -7.7454 O   0  0  0  0  0  0  0  0  0  0  0  0
  -26.6909   46.1851   -9.3549 C   0  0  2  0  0  0  0  0  0  0  0  0
  -27.8753   45.9163  -10.2289 C   0  0  0  0  0  0  0  0  0  0  0  0
  -29.1594   46.5071   -9.7150 C   0  0  0  0  0  0  0  0  0  0  0  0
  -30.2626   46.3083  -10.7455 C   0  0  0  0  0  0  0  0  0  0  0  0
  -30.5687   44.9587  -11.0544 N   0  0  0  0  0  0  0  0  0  0  0  0
  -31.2374   44.0157  -10.2393 C   0  0  0  0  0  0  0  0  0  0  0  0
  -31.4532   42.6745  -10.7125 N   0  0  0  0  0  0  0  0  0  0  0  0
  -31.6578   44.3404   -9.0689 N   0  0  0  0  0  0  0  0  0  0  0  0
  -25.5474   45.4019   -9.8958 N   0  0  0  0  0  0  0  0  0  0  0  0
  -24.6888   45.9213  -10.9196 C   0  0  0  0  0  0  0  0  0  0  0  0
  -24.8743   47.0593  -11.4319 O   0  0  0  0  0  0  0  0  0  0  0  0
  -23.5984   45.0323  -11.3122 C   0  0  1  0  0  0  0  0  0  0  0  0
  -22.8353   45.3571  -12.4922 N   0  0  0  0  0  0  0  0  0  0  0  0
  -22.0802   44.2851  -13.0037 C   0  0  0  0  0  0  0  0  0  0  0  0
  -22.1800   43.1785  -12.3638 O   0  0  0  0  0  0  0  0  0  0  0  0
  -21.1764   44.2603  -14.1772 C   0  0  2  0  0  0  0  0  0  0  0  0
  -21.8208   44.3695  -15.4905 C   0  0  0  0  0  0  0  0  0  0  0  0
  -22.4172   45.6274  -15.7162 O   0  0  0  0  0  0  0  0  0  0  0  0
  -20.5483   42.9058  -14.0012 N   0  0  0  0  0  0  0  0  0  0  0  0
  -19.6436   42.8523  -12.9506 C   0  0  0  0  0  0  0  0  0  0  0  0
  -19.4617   43.9750  -12.3225 O   0  0  0  0  0  0  0  0  0  0  0  0
  -18.8669   41.7319  -12.4278 C   0  0  2  0  0  0  0  0  0  0  0  0
  -19.8329   40.6982  -11.7592 C   0  0  0  0  0  0  0  0  0  0  0  0
  -20.8261   40.1011  -12.6757 C   0  0  0  0  0  0  0  0  0  0  0  0
  -20.1023   39.3649  -13.8038 C   0  0  0  0  0  0  0  0  0  0  0  0
  -21.4612   38.9260  -11.8597 C   0  0  0  0  0  0  0  0  0  0  0  0
  -18.0559   42.2545  -11.3053 N   0  0  0  0  0  0  0  0  0  0  0  0
  -17.2761   41.5086  -10.4369 C   0  0  0  0  0  0  0  0  0  0  0  0
  -17.2150   40.2747  -10.5585 O   0  0  0  0  0  0  0  0  0  0  0  0
  -16.5424   42.2139   -9.3669 C   0  0  2  0  0  0  0  0  0  0  0  0
  -17.6176   42.6435   -8.3030 C   0  0  0  0  0  0  0  0  0  0  0  0
  -18.3073   41.4564   -7.7638 C   0  0  0  0  0  0  0  0  0  0  0  0
  -19.2650   41.6333   -6.9660 O   0  0  0  0  0  0  0  0  0  0  0  0
  -17.9793   40.1435   -8.0647 O   0  0  0  0  0  0  0  0  0  0  0  0
  -15.9280   43.4510   -9.8207 N   0  0  0  0  0  0  0  0  0  0  0  0
  -15.1466   44.2801   -8.9949 C   0  0  0  0  0  0  0  0  0  0  0  0
  -14.9839   43.9838   -7.7714 O   0  0  0  0  0  0  0  0  0  0  0  0
  -14.4547   45.5326   -9.4446 C   0  0  2  0  0  0  0  0  0  0  0  0
  -15.1334   46.7171   -8.8010 C   0  0  0  0  0  0  0  0  0  0  0  0
  -14.4557   47.9547   -9.1865 C   0  0  0  0  0  0  0  0  0  0  0  0
  -14.8454   48.8458  -10.1338 C   0  0  0  0  0  0  0  0  0  0  0  0
  -14.1382   49.9908  -10.4910 C   0  0  0  0  0  0  0  0  0  0  0  0
  -12.9572   50.2127   -9.8178 C   0  0  0  0  0  0  0  0  0  0  0  0
  -12.5048   49.3428   -8.8406 C   0  0  0  0  0  0  0  0  0  0  0  0
  -13.2503   48.2329   -8.5363 C   0  0  0  0  0  0  0  0  0  0  0  0
  -14.3039   45.5419  -10.8455 N   0  0  0  0  0  0  0  0  0  0  0  0
  -15.1820   45.8767  -11.9047 C   0  0  0  0  0  0  0  0  0  0  0  0
  -16.3285   46.2578  -11.6785 O   0  0  0  0  0  0  0  0  0  0  0  0
  -14.5849   45.7045  -13.2770 C   0  0  2  0  0  0  0  0  0  0  0  0
  -13.5604   46.8001  -13.5903 C   0  0  0  0  0  0  0  0  0  0  0  0
  -14.1416   48.1668  -13.6337 C   0  0  0  0  0  0  0  0  0  0  0  0
  -13.1038   49.2251  -13.9085 C   0  0  0  0  0  0  0  0  0  0  0  0
  -13.5618   50.5477  -14.1674 N   0  0  0  0  0  0  0  0  0  0  0  0
  -11.8674   48.9497  -13.9114 O   0  0  0  0  0  0  0  0  0  0  0  0
  -15.5906   45.7002  -14.3217 N   0  0  0  0  0  0  0  0  0  0  0  0
  -15.5620   44.5588  -15.1915 C   0  0  0  0  0  0  0  0  0  0  0  0
  -14.6982   43.6285  -15.0087 O   0  0  0  0  0  0  0  0  0  0  0  0
  -16.4801   44.3627  -16.3248 C   0  0  1  0  0  0  0  0  0  0  0  0
  -16.2177   43.0766  -16.9561 N   0  0  0  0  0  0  0  0  0  0  0  0
  -17.9208   44.5724  -16.0131 C   0  0  0  0  0  0  0  0  0  0  0  0
  -18.6086   44.5049  -17.2291 O   0  0  0  0  0  0  0  0  0  0  0  0
  -22.5256   45.2852  -10.1738 C   0  0  1  0  0  0  0  0  0  0  0  0
  -22.0801   46.7176  -10.2492 C   0  0  0  0  0  0  0  0  0  0  0  0
  -23.0629   45.0188   -8.9503 O   0  0  0  0  0  0  0  0  0  0  0  0
  -27.3539   50.5253   -4.4544 C   0  0  0  0  0  0  0  0  0  0  0  0
  -27.2299   51.4713   -3.5950 O   0  0  0  0  0  0  0  0  0  0  0  0
  -27.9964   50.8887   -5.6681 N   0  0  0  0  0  0  0  0  0  0  0  0
  -28.4777   52.2466   -5.9135 C   0  0  1  0  0  0  0  0  0  0  0  0
  -27.8031   52.9059   -7.0911 C   0  0  0  0  0  0  0  0  0  0  0  0
  -28.3328   54.2952   -7.3010 C   0  0  0  0  0  0  0  0  0  0  0  0
  -27.6785   55.0115   -8.4795 C   0  0  0  0  0  0  0  0  0  0  0  0
  -26.1876   55.1681   -8.2973 C   0  0  0  0  0  0  0  0  0  0  0  0
  -25.6189   55.8629   -9.4501 N   0  0  0  0  0  0  0  0  0  0  0  0
  -29.9271   52.1910   -6.1468 C   0  0  0  0  0  0  0  0  0  0  0  0
  -30.4989   52.3353   -7.2521 O   0  0  0  0  0  0  0  0  0  0  0  0
  -30.7558   51.9580   -5.0505 O   0  0  0  0  0  0  0  0  0  0  0  0
  1  2  1  0
  2  3  1  0
  2  4  1  0
  5  4  1  6
  5  6  1  0
  6  7  1  0
  7  8  2  0
  7  9  1  0
  9 10  1  1
 10 11  1  0
 11 12  1  0
 12 13  1  0
 13 14  1  0
 14 15  1  0
 14 16  2  0
  9 17  1  0
 17 18  1  0
 18 19  2  0
 18 20  1  0
 20 21  1  6
 21 22  1  0
 22 23  1  0
 23 24  1  0
 24 25  1  0
 25 26  1  0
 25 27  2  0
 20 28  1  0
 28 29  1  0
 29 30  2  0
 29 31  1  0
 31 32  1  6
 32 33  1  0
 33 34  2  0
 33 35  1  0
 35 36  1  6
 36 37  1  0
 35 38  1  0
 38 39  1  0
 39 40  2  0
 39 41  1  0
 41 42  1  1
 42 43  1  0
 43 44  1  0
 43 45  1  0
 41 46  1  0
 46 47  1  0
 47 48  2  0
 47 49  1  0
 49 50  1  1
 50 51  1  0
 51 52  2  0
 51 53  1  0
 49 54  1  0
 54 55  1  0
 55 56  2  0
 55 57  1  0
 57 58  1  6
 58 59  1  0
 59 60  2  0
 60 61  1  0
 61 62  2  0
 62 63  1  0
 63 64  2  0
 57 65  1  0
 65 66  1  0
 66 67  2  0
 66 68  1  0
 68 69  1  6
 69 70  1  0
 70 71  1  0
 71 72  1  0
 71 73  2  0
 68 74  1  0
 74 75  1  0
 75 76  2  0
 75 77  1  0
 77 78  1  1
 77 79  1  0
 79 80  1  0
 31 81  1  0
 81 82  1  1
 81 83  1  0
  5 84  1  0
 84 85  2  0
 84 86  1  0
 86 87  1  0
 87 88  1  6
 88 89  1  0
 89 90  1  0
 90 91  1  0
 91 92  1  0
 87 93  1  0
 93 94  2  0
 93 95  1  0
 64 59  1  0
M  CHG  6  16   1  27   1  53  -1  78   1  92   1  95  -1
M  END
>  <shape_align_shape_tanimoto>  (1) 
0.20544480553553415

>  <shape_align_color_tanimoto>  (1) 
0.0009665498626899822

>  <metric>  (1) 
shape

>  <metric_score>  (1) 
0.205

>  <template_pid>  (1) 
5ICY

>  <template_shape_score>  (1) 
0.205

>  <template_color_score>  (1) 
0.001

>  <template_combo_score>  (1) 
0.103

$$$$
5ICY_color_pose
     RDKit          3D

 95 95  0  0  0  0  0  0  0  0999 V2000
  -22.3832   46.1337    0.7652 C   0  0  0  0  0  0  0  0  0  0  0  0
  -23.7252   45.8369    0.1839 C   0  0  0  0  0  0  0  0  0  0  0  0
  -24.8230   45.9583    1.2459 C   0  0  0  0  0  0  0  0  0  0  0  0
  -24.0869   46.8140   -0.8914 C   0  0  0  0  0  0  0  0  0  0  0  0
  -23.2353   46.8324   -2.0523 C   0  0  2  0  0  0  0  0  0  0  0  0
  -23.7352   47.8665   -3.0195 N   0  0  0  0  0  0  0  0  0  0  0  0
  -22.9313   47.8905   -4.1718 C   0  0  0  0  0  0  0  0  0  0  0  0
  -21.9586   47.0146   -4.1399 O   0  0  0  0  0  0  0  0  0  0  0  0
  -22.9682   48.6921   -5.4017 C   0  0  2  0  0  0  0  0  0  0  0  0
  -24.1388   49.5074   -5.6681 C   0  0  0  0  0  0  0  0  0  0  0  0
  -24.0985   50.3481   -6.9456 C   0  0  0  0  0  0  0  0  0  0  0  0
  -24.0003   49.5601   -8.1676 C   0  0  0  0  0  0  0  0  0  0  0  0
  -23.8935   50.4247   -9.3736 N   0  0  0  0  0  0  0  0  0  0  0  0
  -22.7256   51.1789   -9.4837 C   0  0  0  0  0  0  0  0  0  0  0  0
  -22.7160   52.0582  -10.6556 N   0  0  0  0  0  0  0  0  0  0  0  0
  -21.7143   51.2148   -8.6176 N   0  0  0  0  0  0  0  0  0  0  0  0
  -22.7090   47.6644   -6.4451 N   0  0  0  0  0  0  0  0  0  0  0  0
  -21.4369   47.1447   -6.7282 C   0  0  0  0  0  0  0  0  0  0  0  0
  -20.4452   47.5703   -6.0401 O   0  0  0  0  0  0  0  0  0  0  0  0
  -21.1470   46.1139   -7.7655 C   0  0  2  0  0  0  0  0  0  0  0  0
  -19.6616   45.8991   -7.9070 C   0  0  0  0  0  0  0  0  0  0  0  0
  -18.8704   47.0721   -8.3452 C   0  0  0  0  0  0  0  0  0  0  0  0
  -17.4152   46.6808   -8.3851 C   0  0  0  0  0  0  0  0  0  0  0  0
  -16.9145   46.3011   -7.0826 N   0  0  0  0  0  0  0  0  0  0  0  0
  -15.5551   45.8608   -6.8989 C   0  0  0  0  0  0  0  0  0  0  0  0
  -15.0279   45.5102   -5.6304 N   0  0  0  0  0  0  0  0  0  0  0  0
  -14.8330   45.8344   -7.9715 N   0  0  0  0  0  0  0  0  0  0  0  0
  -21.9081   46.2028   -8.9474 N   0  0  0  0  0  0  0  0  0  0  0  0
  -22.3901   45.1096   -9.7748 C   0  0  0  0  0  0  0  0  0  0  0  0
  -22.1528   43.9359   -9.4854 O   0  0  0  0  0  0  0  0  0  0  0  0
  -23.1709   45.5916  -10.9579 C   0  0  1  0  0  0  0  0  0  0  0  0
  -23.3903   44.6598  -12.0201 N   0  0  0  0  0  0  0  0  0  0  0  0
  -22.9989   45.0705  -13.3344 C   0  0  0  0  0  0  0  0  0  0  0  0
  -22.4705   46.2614  -13.3749 O   0  0  0  0  0  0  0  0  0  0  0  0
  -23.1025   44.3971  -14.5878 C   0  0  2  0  0  0  0  0  0  0  0  0
  -23.8129   45.3963  -15.5468 C   0  0  0  0  0  0  0  0  0  0  0  0
  -25.1460   45.4789  -15.2529 O   0  0  0  0  0  0  0  0  0  0  0  0
  -23.6749   43.1092  -14.7129 N   0  0  0  0  0  0  0  0  0  0  0  0
  -23.3725   42.3618  -15.8856 C   0  0  0  0  0  0  0  0  0  0  0  0
  -22.5968   42.9494  -16.7242 O   0  0  0  0  0  0  0  0  0  0  0  0
  -23.8945   40.9952  -16.1723 C   0  0  2  0  0  0  0  0  0  0  0  0
  -24.9412   41.0100  -17.2484 C   0  0  0  0  0  0  0  0  0  0  0  0
  -25.3971   39.6625  -17.6836 C   0  0  0  0  0  0  0  0  0  0  0  0
  -25.9784   38.7109  -16.7234 C   0  0  0  0  0  0  0  0  0  0  0  0
  -26.3169   39.7839  -18.9050 C   0  0  0  0  0  0  0  0  0  0  0  0
  -24.5068   40.5452  -14.9227 N   0  0  0  0  0  0  0  0  0  0  0  0
  -25.8172   40.7287  -14.4953 C   0  0  0  0  0  0  0  0  0  0  0  0
  -26.7550   41.2922  -15.0968 O   0  0  0  0  0  0  0  0  0  0  0  0
  -26.1640   40.1864  -13.1230 C   0  0  2  0  0  0  0  0  0  0  0  0
  -26.8425   41.4040  -12.4588 C   0  0  0  0  0  0  0  0  0  0  0  0
  -27.3169   41.1853  -11.1071 C   0  0  0  0  0  0  0  0  0  0  0  0
  -28.4353   40.6465  -10.8888 O   0  0  0  0  0  0  0  0  0  0  0  0
  -26.5995   41.5360   -9.9422 O   0  0  0  0  0  0  0  0  0  0  0  0
  -24.9247   39.9294  -12.4026 N   0  0  0  0  0  0  0  0  0  0  0  0
  -24.7210   38.6030  -11.7359 C   0  0  0  0  0  0  0  0  0  0  0  0
  -25.6148   37.8389  -11.8963 O   0  0  0  0  0  0  0  0  0  0  0  0
  -23.4199   38.5860  -11.0127 C   0  0  2  0  0  0  0  0  0  0  0  0
  -23.7985   38.9837   -9.5424 C   0  0  0  0  0  0  0  0  0  0  0  0
  -24.7319   37.9583   -9.0233 C   0  0  0  0  0  0  0  0  0  0  0  0
  -26.1158   38.0096   -9.2545 C   0  0  0  0  0  0  0  0  0  0  0  0
  -26.9249   37.0045   -8.8441 C   0  0  0  0  0  0  0  0  0  0  0  0
  -26.4640   35.8794   -8.1780 C   0  0  0  0  0  0  0  0  0  0  0  0
  -25.1514   35.8217   -7.9455 C   0  0  0  0  0  0  0  0  0  0  0  0
  -24.1951   36.8134   -8.3255 C   0  0  0  0  0  0  0  0  0  0  0  0
  -22.4556   39.4126  -11.6050 N   0  0  0  0  0  0  0  0  0  0  0  0
  -21.5267   40.3832  -11.1073 C   0  0  0  0  0  0  0  0  0  0  0  0
  -21.5364   40.5994   -9.8949 O   0  0  0  0  0  0  0  0  0  0  0  0
  -20.6797   41.0090  -12.1384 C   0  0  2  0  0  0  0  0  0  0  0  0
  -19.3924   40.2088  -12.4198 C   0  0  0  0  0  0  0  0  0  0  0  0
  -19.5275   38.8218  -12.8905 C   0  0  0  0  0  0  0  0  0  0  0  0
  -20.1468   38.5691  -14.1921 C   0  0  0  0  0  0  0  0  0  0  0  0
  -20.0665   37.2482  -14.7181 N   0  0  0  0  0  0  0  0  0  0  0  0
  -20.7371   39.4767  -14.8368 O   0  0  0  0  0  0  0  0  0  0  0  0
  -20.1046   42.3117  -11.7218 N   0  0  0  0  0  0  0  0  0  0  0  0
  -19.8177   43.1438  -12.8792 C   0  0  0  0  0  0  0  0  0  0  0  0
  -20.0479   42.7758  -14.0219 O   0  0  0  0  0  0  0  0  0  0  0  0
  -19.2197   44.4831  -12.6505 C   0  0  1  0  0  0  0  0  0  0  0  0
  -18.9358   44.6919  -11.2543 N   0  0  0  0  0  0  0  0  0  0  0  0
  -17.9634   44.7083  -13.4390 C   0  0  0  0  0  0  0  0  0  0  0  0
  -16.9443   43.8002  -13.0933 O   0  0  0  0  0  0  0  0  0  0  0  0
  -24.5136   46.0813  -10.3848 C   0  0  1  0  0  0  0  0  0  0  0  0
  -25.2681   46.9627  -11.3072 C   0  0  0  0  0  0  0  0  0  0  0  0
  -25.2771   45.0512   -9.9115 O   0  0  0  0  0  0  0  0  0  0  0  0
  -23.2126   45.5433   -2.8946 C   0  0  0  0  0  0  0  0  0  0  0  0
  -23.8797   45.4564   -3.9333 O   0  0  0  0  0  0  0  0  0  0  0  0
  -22.4188   44.4542   -2.4972 N   0  0  0  0  0  0  0  0  0  0  0  0
  -22.2511   43.2159   -3.2371 C   0  0  1  0  0  0  0  0  0  0  0  0
  -20.9555   42.5597   -2.8604 C   0  0  0  0  0  0  0  0  0  0  0  0
  -20.6266   41.3323   -3.5959 C   0  0  0  0  0  0  0  0  0  0  0  0
  -20.2311   41.3945   -5.0199 C   0  0  0  0  0  0  0  0  0  0  0  0
  -21.1167   41.9551   -6.0431 C   0  0  0  0  0  0  0  0  0  0  0  0
  -22.3853   41.3071   -6.1671 N   0  0  0  0  0  0  0  0  0  0  0  0
  -23.3295   42.2611   -2.7046 C   0  0  0  0  0  0  0  0  0  0  0  0
  -24.4656   42.5128   -3.2138 O   0  0  0  0  0  0  0  0  0  0  0  0
  -23.0811   41.2882   -1.7870 O   0  0  0  0  0  0  0  0  0  0  0  0
  1  2  1  0
  2  3  1  0
  2  4  1  0
  5  4  1  1
  5  6  1  0
  6  7  1  0
  7  8  2  0
  7  9  1  0
  9 10  1  6
 10 11  1  0
 11 12  1  0
 12 13  1  0
 13 14  1  0
 14 15  1  0
 14 16  2  0
  9 17  1  0
 17 18  1  0
 18 19  2  0
 18 20  1  0
 20 21  1  6
 21 22  1  0
 22 23  1  0
 23 24  1  0
 24 25  1  0
 25 26  1  0
 25 27  2  0
 20 28  1  0
 28 29  1  0
 29 30  2  0
 29 31  1  0
 31 32  1  6
 32 33  1  0
 33 34  2  0
 33 35  1  0
 35 36  1  6
 36 37  1  0
 35 38  1  0
 38 39  1  0
 39 40  2  0
 39 41  1  0
 41 42  1  6
 42 43  1  0
 43 44  1  0
 43 45  1  0
 41 46  1  0
 46 47  1  0
 47 48  2  0
 47 49  1  0
 49 50  1  1
 50 51  1  0
 51 52  2  0
 51 53  1  0
 49 54  1  0
 54 55  1  0
 55 56  2  0
 55 57  1  0
 57 58  1  1
 58 59  1  0
 59 60  2  0
 60 61  1  0
 61 62  2  0
 62 63  1  0
 63 64  2  0
 57 65  1  0
 65 66  1  0
 66 67  2  0
 66 68  1  0
 68 69  1  1
 69 70  1  0
 70 71  1  0
 71 72  1  0
 71 73  2  0
 68 74  1  0
 74 75  1  0
 75 76  2  0
 75 77  1  0
 77 78  1  1
 77 79  1  0
 79 80  1  0
 31 81  1  0
 81 82  1  6
 81 83  1  0
  5 84  1  0
 84 85  2  0
 84 86  1  0
 86 87  1  0
 87 88  1  1
 88 89  1  0
 89 90  1  0
 90 91  1  0
 91 92  1  0
 87 93  1  0
 93 94  2  0
 93 95  1  0
 64 59  1  0
M  CHG  6  16   1  27   1  53  -1  78   1  92   1  95  -1
M  END
>  <shape_align_shape_tanimoto>  (2) 
0.17994938248591949

>  <shape_align_color_tanimoto>  (2) 
0.024975011460626584

>  <metric>  (2) 
color

>  <metric_score>  (2) 
0.025

>  <template_pid>  (2) 
5ICY

>  <template_shape_score>  (2) 
0.180

>  <template_color_score>  (2) 
0.025

>  <template_combo_score>  (2) 
0.102

$$$$
5ICY_combo_pose
     RDKit          3D

 95 95  0  0  0  0  0  0  0  0999 V2000
  -22.8134   37.8468  -10.0857 C   0  0  0  0  0  0  0  0  0  0  0  0
  -21.5626   38.5180  -10.6944 C   0  0  0  0  0  0  0  0  0  0  0  0
  -21.4000   39.8142   -9.9680 C   0  0  0  0  0  0  0  0  0  0  0  0
  -21.7073   38.5876  -12.1709 C   0  0  0  0  0  0  0  0  0  0  0  0
  -20.5547   39.2255  -12.8849 C   0  0  2  0  0  0  0  0  0  0  0  0
  -20.3746   40.5970  -12.5240 N   0  0  0  0  0  0  0  0  0  0  0  0
  -19.1597   41.1864  -12.2698 C   0  0  0  0  0  0  0  0  0  0  0  0
  -18.0846   40.5352  -12.3375 O   0  0  0  0  0  0  0  0  0  0  0  0
  -18.9389   42.6576  -11.8744 C   0  0  2  0  0  0  0  0  0  0  0  0
  -18.3629   42.6977  -10.5139 C   0  0  0  0  0  0  0  0  0  0  0  0
  -17.0752   41.8879  -10.4510 C   0  0  0  0  0  0  0  0  0  0  0  0
  -16.0697   42.4029  -11.3902 C   0  0  0  0  0  0  0  0  0  0  0  0
  -14.8975   41.5114  -11.5017 N   0  0  0  0  0  0  0  0  0  0  0  0
  -13.7766   41.7824  -12.2985 C   0  0  0  0  0  0  0  0  0  0  0  0
  -12.7479   40.8266  -12.3758 N   0  0  0  0  0  0  0  0  0  0  0  0
  -13.7043   42.9155  -13.0185 N   0  0  0  0  0  0  0  0  0  0  0  0
  -20.2784   43.2367  -11.8653 N   0  0  0  0  0  0  0  0  0  0  0  0
  -20.8261   43.4594  -13.1624 C   0  0  0  0  0  0  0  0  0  0  0  0
  -19.9831   43.1006  -14.0905 O   0  0  0  0  0  0  0  0  0  0  0  0
  -22.0884   43.9610  -13.6039 C   0  0  2  0  0  0  0  0  0  0  0  0
  -22.1688   44.8960  -14.7483 C   0  0  0  0  0  0  0  0  0  0  0  0
  -21.4876   44.6504  -16.0072 C   0  0  0  0  0  0  0  0  0  0  0  0
  -21.4365   43.5548  -16.9161 C   0  0  0  0  0  0  0  0  0  0  0  0
  -22.3516   42.8575  -17.6733 N   0  0  0  0  0  0  0  0  0  0  0  0
  -23.4708   42.0635  -17.1639 C   0  0  0  0  0  0  0  0  0  0  0  0
  -24.2085   41.4461  -18.2740 N   0  0  0  0  0  0  0  0  0  0  0  0
  -23.6493   42.0024  -15.9809 N   0  0  0  0  0  0  0  0  0  0  0  0
  -22.6238   44.8503  -12.4550 N   0  0  0  0  0  0  0  0  0  0  0  0
  -23.9823   45.0330  -12.2722 C   0  0  0  0  0  0  0  0  0  0  0  0
  -24.8283   44.4728  -13.0425 O   0  0  0  0  0  0  0  0  0  0  0  0
  -24.5732   45.9066  -11.1631 C   0  0  1  0  0  0  0  0  0  0  0  0
  -23.4329   46.4069  -10.4099 N   0  0  0  0  0  0  0  0  0  0  0  0
  -22.9150   45.4511   -9.4631 C   0  0  0  0  0  0  0  0  0  0  0  0
  -23.5117   44.3441   -9.4749 O   0  0  0  0  0  0  0  0  0  0  0  0
  -21.8145   45.6637   -8.5475 C   0  0  2  0  0  0  0  0  0  0  0  0
  -21.8181   44.4911   -7.5345 C   0  0  0  0  0  0  0  0  0  0  0  0
  -20.5752   44.2891   -6.9586 O   0  0  0  0  0  0  0  0  0  0  0  0
  -21.5111   46.8782   -7.9141 N   0  0  0  0  0  0  0  0  0  0  0  0
  -20.7211   47.9782   -8.2265 C   0  0  0  0  0  0  0  0  0  0  0  0
  -20.1392   47.9544   -9.3758 O   0  0  0  0  0  0  0  0  0  0  0  0
  -20.4821   49.1489   -7.3622 C   0  0  2  0  0  0  0  0  0  0  0  0
  -21.6120   49.7447   -6.6591 C   0  0  0  0  0  0  0  0  0  0  0  0
  -22.7251   50.3687   -7.3742 C   0  0  0  0  0  0  0  0  0  0  0  0
  -23.7270   50.8524   -6.3099 C   0  0  0  0  0  0  0  0  0  0  0  0
  -23.4669   49.5583   -8.3694 C   0  0  0  0  0  0  0  0  0  0  0  0
  -19.5913   50.1060   -8.0105 N   0  0  0  0  0  0  0  0  0  0  0  0
  -18.3054   50.4290   -7.5227 C   0  0  0  0  0  0  0  0  0  0  0  0
  -17.9656   49.8423   -6.4368 O   0  0  0  0  0  0  0  0  0  0  0  0
  -17.3770   51.3464   -8.1764 C   0  0  2  0  0  0  0  0  0  0  0  0
  -16.4822   52.0965   -7.3004 C   0  0  0  0  0  0  0  0  0  0  0  0
  -15.5341   51.2465   -6.4818 C   0  0  0  0  0  0  0  0  0  0  0  0
  -15.4810   50.0154   -6.5435 O   0  0  0  0  0  0  0  0  0  0  0  0
  -14.7096   52.0282   -5.6368 O   0  0  0  0  0  0  0  0  0  0  0  0
  -17.9045   52.0675   -9.3132 N   0  0  0  0  0  0  0  0  0  0  0  0
  -17.9713   51.7974  -10.5937 C   0  0  0  0  0  0  0  0  0  0  0  0
  -17.4170   50.5240  -10.8854 O   0  0  0  0  0  0  0  0  0  0  0  0
  -18.4148   52.3102  -11.8798 C   0  0  2  0  0  0  0  0  0  0  0  0
  -19.9437   52.5039  -11.8999 C   0  0  0  0  0  0  0  0  0  0  0  0
  -20.3188   53.0088  -13.2375 C   0  0  0  0  0  0  0  0  0  0  0  0
  -20.5921   52.1301  -14.2296 C   0  0  0  0  0  0  0  0  0  0  0  0
  -20.9299   52.4335  -15.5267 C   0  0  0  0  0  0  0  0  0  0  0  0
  -21.0058   53.7590  -15.8497 C   0  0  0  0  0  0  0  0  0  0  0  0
  -20.7375   54.6723  -14.8684 C   0  0  0  0  0  0  0  0  0  0  0  0
  -20.3962   54.3828  -13.5744 C   0  0  0  0  0  0  0  0  0  0  0  0
  -18.0829   51.3213  -12.9191 N   0  0  0  0  0  0  0  0  0  0  0  0
  -17.2232   51.4802  -14.0055 C   0  0  0  0  0  0  0  0  0  0  0  0
  -16.5708   52.4929  -14.3273 O   0  0  0  0  0  0  0  0  0  0  0  0
  -17.0821   50.2629  -14.9118 C   0  0  2  0  0  0  0  0  0  0  0  0
  -17.3095   50.5818  -16.3230 C   0  0  0  0  0  0  0  0  0  0  0  0
  -17.2138   49.2981  -17.1356 C   0  0  0  0  0  0  0  0  0  0  0  0
  -15.9135   48.6131  -16.9747 C   0  0  0  0  0  0  0  0  0  0  0  0
  -15.9604   47.1814  -17.3011 N   0  0  0  0  0  0  0  0  0  0  0  0
  -14.8424   49.1455  -16.6046 O   0  0  0  0  0  0  0  0  0  0  0  0
  -17.9808   49.2282  -14.4065 N   0  0  0  0  0  0  0  0  0  0  0  0
  -17.4840   48.3912  -13.3821 C   0  0  0  0  0  0  0  0  0  0  0  0
  -16.2954   48.5266  -12.9574 O   0  0  0  0  0  0  0  0  0  0  0  0
  -18.3662   47.3467  -12.7795 C   0  0  1  0  0  0  0  0  0  0  0  0
  -19.4813   46.9885  -13.5793 N   0  0  0  0  0  0  0  0  0  0  0  0
  -17.5688   46.1486  -12.4065 C   0  0  0  0  0  0  0  0  0  0  0  0
  -16.4619   46.4017  -11.6054 O   0  0  0  0  0  0  0  0  0  0  0  0
  -25.4426   46.9578  -11.7663 C   0  0  1  0  0  0  0  0  0  0  0  0
  -26.0567   47.8645  -10.7226 C   0  0  0  0  0  0  0  0  0  0  0  0
  -24.7446   47.7707  -12.7200 O   0  0  0  0  0  0  0  0  0  0  0  0
  -20.5028   38.8335  -14.2813 C   0  0  0  0  0  0  0  0  0  0  0  0
  -21.0156   37.6819  -14.5657 O   0  0  0  0  0  0  0  0  0  0  0  0
  -19.9679   39.5186  -15.3962 N   0  0  0  0  0  0  0  0  0  0  0  0
  -20.0684   38.8534  -16.6548 C   0  0  1  0  0  0  0  0  0  0  0  0
  -19.5758   39.7709  -17.7818 C   0  0  0  0  0  0  0  0  0  0  0  0
  -18.1254   40.0710  -17.5589 C   0  0  0  0  0  0  0  0  0  0  0  0
  -17.3666   40.8220  -18.5607 C   0  0  0  0  0  0  0  0  0  0  0  0
  -17.6977   42.1854  -18.9788 C   0  0  0  0  0  0  0  0  0  0  0  0
  -18.9089   42.3991  -19.6912 N   0  0  0  0  0  0  0  0  0  0  0  0
  -18.8775   37.8253  -16.5487 C   0  0  0  0  0  0  0  0  0  0  0  0
  -18.7774   36.9612  -17.4565 O   0  0  0  0  0  0  0  0  0  0  0  0
  -18.0075   37.9350  -15.4697 O   0  0  0  0  0  0  0  0  0  0  0  0
  1  2  1  0
  2  3  1  0
  2  4  1  0
  5  4  1  6
  5  6  1  0
  6  7  1  0
  7  8  2  0
  7  9  1  0
  9 10  1  1
 10 11  1  0
 11 12  1  0
 12 13  1  0
 13 14  1  0
 14 15  1  0
 14 16  2  0
  9 17  1  0
 17 18  1  0
 18 19  2  0
 18 20  1  0
 20 21  1  6
 21 22  1  0
 22 23  1  0
 23 24  1  0
 24 25  1  0
 25 26  1  0
 25 27  2  0
 20 28  1  0
 28 29  1  0
 29 30  2  0
 29 31  1  0
 31 32  1  6
 32 33  1  0
 33 34  2  0
 33 35  1  0
 35 36  1  1
 36 37  1  0
 35 38  1  0
 38 39  1  0
 39 40  2  0
 39 41  1  0
 41 42  1  6
 42 43  1  0
 43 44  1  0
 43 45  1  0
 41 46  1  0
 46 47  1  0
 47 48  2  0
 47 49  1  0
 49 50  1  1
 50 51  1  0
 51 52  2  0
 51 53  1  0
 49 54  1  0
 54 55  1  0
 55 56  2  0
 55 57  1  0
 57 58  1  1
 58 59  1  0
 59 60  2  0
 60 61  1  0
 61 62  2  0
 62 63  1  0
 63 64  2  0
 57 65  1  0
 65 66  1  0
 66 67  2  0
 66 68  1  0
 68 69  1  6
 69 70  1  0
 70 71  1  0
 71 72  1  0
 71 73  2  0
 68 74  1  0
 74 75  1  0
 75 76  2  0
 75 77  1  0
 77 78  1  6
 77 79  1  0
 79 80  1  0
 31 81  1  0
 81 82  1  1
 81 83  1  0
  5 84  1  0
 84 85  2  0
 84 86  1  0
 86 87  1  0
 87 88  1  6
 88 89  1  0
 89 90  1  0
 90 91  1  0
 91 92  1  0
 87 93  1  0
 93 94  2  0
 93 95  1  0
 64 59  1  0
M  CHG  6  16   1  27   1  53  -1  78   1  92   1  95  -1
M  END
>  <shape_align_shape_tanimoto>  (3) 
0.19763523967983293

>  <shape_align_color_tanimoto>  (3) 
0.015720273108281418

>  <metric>  (3) 
combo

>  <metric_score>  (3) 
0.107

>  <template_pid>  (3) 
5ICY

>  <template_shape_score>  (3) 
0.198

>  <template_color_score>  (3) 
0.016

>  <template_combo_score>  (3) 
0.107

$$$$
