3JUP_shape_pose
     RDKit          3D

 17 18  0  0  0  0  0  0  0  0999 V2000
   26.7503    8.7710   40.2611 O   0  0  0  0  0  0  0  0  0  0  0  0
   25.7477    9.5127   40.3225 C   0  0  0  0  0  0  0  0  0  0  0  0
   26.0417   10.8918   40.3104 O   0  0  0  0  0  0  0  0  0  0  0  0
   24.3645    9.0928   40.4018 C   0  0  0  0  0  0  0  0  0  0  0  0
   23.3925   10.0806   40.4676 C   0  0  0  0  0  0  0  0  0  0  0  0
   22.0535    9.8375   40.5497 C   0  0  0  0  0  0  0  0  0  0  0  0
   20.7632   11.2465   40.6379 Br  0  0  0  0  0  0  0  0  0  0  0  0
   21.6232    8.5392   40.5693 C   0  0  0  0  0  0  0  0  0  0  0  0
   22.5768    7.5396   40.5042 C   0  0  0  0  0  0  0  0  0  0  0  0
   23.9340    7.7976   40.4214 C   0  0  0  0  0  0  0  0  0  0  0  0
   24.8597    6.7162   40.3388 N   0  0  0  0  0  0  0  0  0  0  0  0
   24.3399    5.3536   40.4176 C   0  0  1  0  0  0  0  0  0  0  0  0
   25.4418    4.3684   40.1639 C   0  0  0  0  0  0  0  0  0  0  0  0
   26.5561    4.6000   41.1347 C   0  0  0  0  0  0  0  0  0  0  0  0
   25.9716    5.0216   42.4901 C   0  0  0  0  0  0  0  0  0  0  0  0
   24.6671    4.3508   42.5912 N   0  0  0  0  0  0  0  0  0  0  0  0
   23.7432    5.1133   41.7870 C   0  0  0  0  0  0  0  0  0  0  0  0
  1  2  2  0
  2  3  1  0
  2  4  1  0
  4  5  2  0
  5  6  1  0
  6  7  1  0
  6  8  2  0
  8  9  1  0
  9 10  2  0
 10 11  1  0
 12 11  1  1
 12 13  1  0
 13 14  1  0
 14 15  1  0
 15 16  1  0
 16 17  1  0
 10  4  1  0
 17 12  1  0
M  CHG  2   3  -1  16   1
M  END
>  <shape_align_shape_tanimoto>  (1) 
0.75227774872369335

>  <shape_align_color_tanimoto>  (1) 
0.069643252669592565

>  <metric>  (1) 
shape

>  <metric_score>  (1) 
0.752

>  <template_pid>  (1) 
3JUP

>  <template_shape_score>  (1) 
0.752

>  <template_color_score>  (1) 
0.070

>  <template_combo_score>  (1) 
0.411

$$$$
3JUP_color_pose
     RDKit          3D

 17 18  0  0  0  0  0  0  0  0999 V2000
   26.7188    8.6222   39.6114 O   0  0  0  0  0  0  0  0  0  0  0  0
   25.5797    8.8449   40.1758 C   0  0  0  0  0  0  0  0  0  0  0  0
   25.3475   10.1777   40.3718 O   0  0  0  0  0  0  0  0  0  0  0  0
   24.7797    7.6977   40.5010 C   0  0  0  0  0  0  0  0  0  0  0  0
   25.4259    6.4525   40.3647 C   0  0  0  0  0  0  0  0  0  0  0  0
   24.8712    5.2723   40.7851 C   0  0  0  0  0  0  0  0  0  0  0  0
   25.7943    3.6194   40.5731 Br  0  0  0  0  0  0  0  0  0  0  0  0
   23.6362    5.3201   41.3604 C   0  0  0  0  0  0  0  0  0  0  0  0
   23.0074    6.5206   41.4911 C   0  0  0  0  0  0  0  0  0  0  0  0
   23.5400    7.7641   41.0687 C   0  0  0  0  0  0  0  0  0  0  0  0
   22.6586    8.8359   41.1246 N   0  0  0  0  0  0  0  0  0  0  0  0
   22.5149   10.0829   40.4951 C   0  0  1  0  0  0  0  0  0  0  0  0
   22.5298   10.1254   38.9995 C   0  0  0  0  0  0  0  0  0  0  0  0
   21.5739    9.1681   38.3296 C   0  0  0  0  0  0  0  0  0  0  0  0
   20.1806    9.2798   38.8951 C   0  0  0  0  0  0  0  0  0  0  0  0
   20.1896    9.4798   40.3267 N   0  0  0  0  0  0  0  0  0  0  0  0
   21.0253   10.5410   40.7884 C   0  0  0  0  0  0  0  0  0  0  0  0
  1  2  2  0
  2  3  1  0
  2  4  1  0
  4  5  2  0
  5  6  1  0
  6  7  1  0
  6  8  2  0
  8  9  1  0
  9 10  2  0
 10 11  1  0
 12 11  1  6
 12 13  1  0
 13 14  1  0
 14 15  1  0
 15 16  1  0
 16 17  1  0
 10  4  1  0
 17 12  1  0
M  CHG  2   3  -1  16   1
M  END
>  <shape_align_shape_tanimoto>  (2) 
0.69214896526695657

>  <shape_align_color_tanimoto>  (2) 
0.11717999825824797

>  <metric>  (2) 
color

>  <metric_score>  (2) 
0.117

>  <template_pid>  (2) 
3JUP

>  <template_shape_score>  (2) 
0.692

>  <template_color_score>  (2) 
0.117

>  <template_combo_score>  (2) 
0.405

$$$$
3JUP_combo_pose
     RDKit          3D

 17 18  0  0  0  0  0  0  0  0999 V2000
   25.7618   10.3031   40.6532 O   0  0  0  0  0  0  0  0  0  0  0  0
   25.3512    9.1085   40.3846 C   0  0  0  0  0  0  0  0  0  0  0  0
   26.3773    8.2718   40.0574 O   0  0  0  0  0  0  0  0  0  0  0  0
   23.9343    8.8854   40.4692 C   0  0  0  0  0  0  0  0  0  0  0  0
   23.1474   10.0233   40.6768 C   0  0  0  0  0  0  0  0  0  0  0  0
   21.7835   10.0220   40.6660 C   0  0  0  0  0  0  0  0  0  0  0  0
   20.7745   11.6120   40.9570 Br  0  0  0  0  0  0  0  0  0  0  0  0
   21.1496    8.8354   40.4382 C   0  0  0  0  0  0  0  0  0  0  0  0
   21.9047    7.7193   40.2369 C   0  0  0  0  0  0  0  0  0  0  0  0
   23.3186    7.6808   40.2433 C   0  0  0  0  0  0  0  0  0  0  0  0
   23.8885    6.4218   40.1594 N   0  0  0  0  0  0  0  0  0  0  0  0
   25.1406    5.8306   40.4299 C   0  0  1  0  0  0  0  0  0  0  0  0
   25.4434    6.0513   41.8982 C   0  0  0  0  0  0  0  0  0  0  0  0
   24.8692    4.9437   42.7393 C   0  0  0  0  0  0  0  0  0  0  0  0
   25.6968    3.6900   42.4904 C   0  0  0  0  0  0  0  0  0  0  0  0
   25.9354    3.5638   41.0557 N   0  0  0  0  0  0  0  0  0  0  0  0
   24.9293    4.2696   40.3076 C   0  0  0  0  0  0  0  0  0  0  0  0
  1  2  2  0
  2  3  1  0
  2  4  1  0
  4  5  2  0
  5  6  1  0
  6  7  1  0
  6  8  2  0
  8  9  1  0
  9 10  2  0
 10 11  1  0
 12 11  1  1
 12 13  1  0
 13 14  1  0
 14 15  1  0
 15 16  1  0
 16 17  1  0
 10  4  1  0
 17 12  1  0
M  CHG  2   3  -1  16   1
M  END
>  <shape_align_shape_tanimoto>  (3) 
0.74844833223613683

>  <shape_align_color_tanimoto>  (3) 
0.095542898279582622

>  <metric>  (3) 
combo

>  <metric_score>  (3) 
0.422

>  <template_pid>  (3) 
3JUP

>  <template_shape_score>  (3) 
0.748

>  <template_color_score>  (3) 
0.096

>  <template_combo_score>  (3) 
0.422

$$$$
