4PTG_shape_pose
     RDKit          3D

 23 25  0  0  0  0  0  0  0  0999 V2000
  -22.5940    9.8475  -14.5877 C   0  0  0  0  0  0  0  0  0  0  0  0
  -21.8869    9.4552  -15.7736 O   0  0  0  0  0  0  0  0  0  0  0  0
  -22.2235    8.2124  -16.3344 C   0  0  0  0  0  0  0  0  0  0  0  0
  -23.1696    7.3922  -15.8065 N   0  0  0  0  0  0  0  0  0  0  0  0
  -23.5126    6.2044  -16.3161 C   0  0  0  0  0  0  0  0  0  0  0  0
  -24.5565    5.3617  -15.6845 C   0  0  0  0  0  0  0  0  0  0  0  0
  -25.1862    5.8331  -14.5323 C   0  0  0  0  0  0  0  0  0  0  0  0
  -26.1654    4.9844  -13.9857 C   0  0  0  0  0  0  0  0  0  0  0  0
  -26.4732    3.7881  -14.5457 N   0  0  0  0  0  0  0  0  0  0  0  0
  -25.8698    3.3100  -15.6706 C   0  0  0  0  0  0  0  0  0  0  0  0
  -26.2791    2.0353  -16.1665 N   0  0  0  0  0  0  0  0  0  0  0  0
  -25.7859    1.3658  -17.3054 C   0  0  0  0  0  0  0  0  0  0  0  0
  -24.8822    1.8568  -18.0400 O   0  0  0  0  0  0  0  0  0  0  0  0
  -26.3261    0.0228  -17.6926 C   0  0  0  0  0  0  0  0  0  0  0  0
  -26.6630   -0.0588  -19.2140 C   0  0  0  0  0  0  0  0  0  0  0  0
  -25.6143   -0.9128  -18.5812 C   0  0  0  0  0  0  0  0  0  0  0  0
  -24.8974    4.1203  -16.2390 C   0  0  0  0  0  0  0  0  0  0  0  0
  -22.8773    5.7759  -17.4414 N   0  0  0  0  0  0  0  0  0  0  0  0
  -21.9030    6.5391  -18.0491 C   0  0  0  0  0  0  0  0  0  0  0  0
  -21.5723    7.7758  -17.4858 C   0  0  0  0  0  0  0  0  0  0  0  0
  -20.5271    8.5630  -18.1626 C   0  0  0  0  0  0  0  0  0  0  0  0
  -20.1162    9.8509  -17.6584 N   0  0  0  0  0  0  0  0  0  0  0  0
  -19.9315    8.1592  -19.2193 O   0  0  0  0  0  0  0  0  0  0  0  0
  1  2  1  0
  2  3  1  0
  3  4  2  0
  4  5  1  0
  5  6  1  0
  6  7  2  0
  7  8  1  0
  8  9  2  0
  9 10  1  0
 10 11  1  0
 11 12  1  0
 12 13  2  0
 12 14  1  0
 14 15  1  0
 15 16  1  0
 10 17  2  0
  5 18  2  0
 18 19  1  0
 19 20  2  0
 20 21  1  0
 21 22  1  0
 21 23  2  0
 20  3  1  0
 17  6  1  0
 16 14  1  0
M  END
>  <shape_align_shape_tanimoto>  (1) 
0.87627322716707468

>  <shape_align_color_tanimoto>  (1) 
0.075201810266601207

>  <metric>  (1) 
shape

>  <metric_score>  (1) 
0.876

>  <template_pid>  (1) 
4PTG

>  <template_shape_score>  (1) 
0.876

>  <template_color_score>  (1) 
0.075

>  <template_combo_score>  (1) 
0.476

$$$$
4PTG_color_pose
     RDKit          3D

 23 25  0  0  0  0  0  0  0  0999 V2000
  -22.5787    9.2634  -14.1667 C   0  0  0  0  0  0  0  0  0  0  0  0
  -21.9298    9.0703  -15.4104 O   0  0  0  0  0  0  0  0  0  0  0  0
  -22.2850    7.9804  -16.1698 C   0  0  0  0  0  0  0  0  0  0  0  0
  -23.2233    7.0940  -15.7753 N   0  0  0  0  0  0  0  0  0  0  0  0
  -23.5565    6.0363  -16.5302 C   0  0  0  0  0  0  0  0  0  0  0  0
  -24.5764    5.0768  -16.0966 C   0  0  0  0  0  0  0  0  0  0  0  0
  -25.1953    5.2851  -14.8810 C   0  0  0  0  0  0  0  0  0  0  0  0
  -26.1614    4.4066  -14.4337 C   0  0  0  0  0  0  0  0  0  0  0  0
  -26.4892    3.3453  -15.2015 N   0  0  0  0  0  0  0  0  0  0  0  0
  -25.8974    3.1186  -16.3969 C   0  0  0  0  0  0  0  0  0  0  0  0
  -26.2921    1.9794  -17.1541 N   0  0  0  0  0  0  0  0  0  0  0  0
  -27.2944    1.1231  -16.6239 C   0  0  0  0  0  0  0  0  0  0  0  0
  -27.8519    1.3252  -15.5117 O   0  0  0  0  0  0  0  0  0  0  0  0
  -27.6746   -0.0562  -17.4521 C   0  0  0  0  0  0  0  0  0  0  0  0
  -27.5227    0.0034  -18.9542 C   0  0  0  0  0  0  0  0  0  0  0  0
  -26.5098   -0.7141  -18.1479 C   0  0  0  0  0  0  0  0  0  0  0  0
  -24.9371    3.9958  -16.8367 C   0  0  0  0  0  0  0  0  0  0  0  0
  -22.9362    5.8463  -17.7257 N   0  0  0  0  0  0  0  0  0  0  0  0
  -21.9863    6.7143  -18.1604 C   0  0  0  0  0  0  0  0  0  0  0  0
  -21.6460    7.8031  -17.3790 C   0  0  0  0  0  0  0  0  0  0  0  0
  -20.6303    8.7517  -17.8193 C   0  0  0  0  0  0  0  0  0  0  0  0
  -19.9787    8.5567  -19.0696 N   0  0  0  0  0  0  0  0  0  0  0  0
  -20.3570    9.7278  -17.0694 O   0  0  0  0  0  0  0  0  0  0  0  0
  1  2  1  0
  2  3  1  0
  3  4  2  0
  4  5  1  0
  5  6  1  0
  6  7  2  0
  7  8  1  0
  8  9  2  0
  9 10  1  0
 10 11  1  0
 11 12  1  0
 12 13  2  0
 12 14  1  0
 14 15  1  0
 15 16  1  0
 10 17  2  0
  5 18  2  0
 18 19  1  0
 19 20  2  0
 20 21  1  0
 21 22  1  0
 21 23  2  0
 20  3  1  0
 17  6  1  0
 16 14  1  0
M  END
>  <shape_align_shape_tanimoto>  (2) 
0.85110532628384394

>  <shape_align_color_tanimoto>  (2) 
0.11150064115632927

>  <metric>  (2) 
color

>  <metric_score>  (2) 
0.112

>  <template_pid>  (2) 
4PTG

>  <template_shape_score>  (2) 
0.851

>  <template_color_score>  (2) 
0.112

>  <template_combo_score>  (2) 
0.481

$$$$
4PTG_combo_pose
     RDKit          3D

 23 25  0  0  0  0  0  0  0  0999 V2000
  -23.0617    8.1800  -13.1467 C   0  0  0  0  0  0  0  0  0  0  0  0
  -22.5347    8.4685  -14.4053 O   0  0  0  0  0  0  0  0  0  0  0  0
  -22.8426    7.6155  -15.4267 C   0  0  0  0  0  0  0  0  0  0  0  0
  -23.6091    6.5449  -15.2663 N   0  0  0  0  0  0  0  0  0  0  0  0
  -23.9011    5.7217  -16.2713 C   0  0  0  0  0  0  0  0  0  0  0  0
  -24.7426    4.5583  -16.0646 C   0  0  0  0  0  0  0  0  0  0  0  0
  -25.2268    4.3261  -14.8236 C   0  0  0  0  0  0  0  0  0  0  0  0
  -26.0171    3.2163  -14.6735 C   0  0  0  0  0  0  0  0  0  0  0  0
  -26.2831    2.4166  -15.7167 N   0  0  0  0  0  0  0  0  0  0  0  0
  -25.7999    2.6597  -16.9260 C   0  0  0  0  0  0  0  0  0  0  0  0
  -26.1301    1.7618  -17.9780 N   0  0  0  0  0  0  0  0  0  0  0  0
  -26.9505    0.6729  -17.6602 C   0  0  0  0  0  0  0  0  0  0  0  0
  -27.3944    0.4601  -16.5225 O   0  0  0  0  0  0  0  0  0  0  0  0
  -27.2972   -0.2547  -18.7258 C   0  0  0  0  0  0  0  0  0  0  0  0
  -27.2411    0.1620  -20.1516 C   0  0  0  0  0  0  0  0  0  0  0  0
  -26.1442   -0.6582  -19.6056 C   0  0  0  0  0  0  0  0  0  0  0  0
  -25.0171    3.7396  -17.1246 C   0  0  0  0  0  0  0  0  0  0  0  0
  -23.4023    5.9913  -17.4720 N   0  0  0  0  0  0  0  0  0  0  0  0
  -22.6202    7.0612  -17.6931 C   0  0  0  0  0  0  0  0  0  0  0  0
  -22.3261    7.8976  -16.6619 C   0  0  0  0  0  0  0  0  0  0  0  0
  -21.4889    9.0438  -16.8964 C   0  0  0  0  0  0  0  0  0  0  0  0
  -21.1965    9.8966  -15.8166 N   0  0  0  0  0  0  0  0  0  0  0  0
  -21.0268    9.2884  -18.0219 O   0  0  0  0  0  0  0  0  0  0  0  0
  1  2  1  0
  2  3  1  0
  3  4  2  0
  4  5  1  0
  5  6  1  0
  6  7  2  0
  7  8  1  0
  8  9  2  0
  9 10  1  0
 10 11  1  0
 11 12  1  0
 12 13  2  0
 12 14  1  0
 14 15  1  0
 15 16  1  0
 10 17  2  0
  5 18  2  0
 18 19  1  0
 19 20  2  0
 20 21  1  0
 21 22  1  0
 21 23  2  0
 20  3  1  0
 17  6  1  0
 16 14  1  0
M  END
>  <shape_align_shape_tanimoto>  (3) 
0.87247308418168235

>  <shape_align_color_tanimoto>  (3) 
0.090828371637717939

>  <metric>  (3) 
combo

>  <metric_score>  (3) 
0.482

>  <template_pid>  (3) 
4PTG

>  <template_shape_score>  (3) 
0.872

>  <template_color_score>  (3) 
0.091

>  <template_combo_score>  (3) 
0.482

$$$$
