3KBZ_shape_pose
     RDKit          3D

 19 21  0  0  0  0  0  0  0  0999 V2000
   58.7248   49.0820   25.6668 N   0  0  0  0  0  0  0  0  0  0  0  0
   57.3087   49.2774   25.7464 C   0  0  0  0  0  0  0  0  0  0  0  0
   56.3001   48.6694   25.7340 N   0  0  0  0  0  0  0  0  0  0  0  0
   55.0648   49.1173   25.8252 C   0  0  0  0  0  0  0  0  0  0  0  0
   54.9477   50.4640   25.9513 C   0  0  0  0  0  0  0  0  0  0  0  0
   56.6625   51.0268   25.9297 S   0  0  0  0  0  0  0  0  0  0  0  0
   53.5530   50.9216   26.0511 C   0  0  0  0  0  0  0  0  0  0  0  0
   52.8252   49.6364   25.9592 C   0  0  0  0  0  0  0  0  0  0  0  0
   51.4641   49.4228   25.9878 C   0  0  0  0  0  0  0  0  0  0  0  0
   50.9504   48.1533   25.8853 C   0  0  0  0  0  0  0  0  0  0  0  0
   51.8124   47.1123   25.7553 C   0  0  0  0  0  0  0  0  0  0  0  0
   53.2160   47.2404   25.7181 C   0  0  0  0  0  0  0  0  0  0  0  0
   53.9805   46.2841   25.6054 O   0  0  0  0  0  0  0  0  0  0  0  0
   54.6990   45.1627   25.4758 C   0  0  0  0  0  0  0  0  0  0  0  0
   54.3724   43.9684   26.8182 P   0  0  0  0  0  0  0  0  0  0  0  0
   55.3369   44.2124   27.9368 O   0  0  0  0  0  0  0  0  0  0  0  0
   54.3702   42.3849   26.2648 O   0  0  0  0  0  0  0  0  0  0  0  0
   52.8056   44.3471   27.3869 O   0  0  0  0  0  0  0  0  0  0  0  0
   53.6818   48.5800   25.8287 C   0  0  0  0  0  0  0  0  0  0  0  0
  1  2  1  0
  2  3  2  0
  3  4  1  0
  4  5  2  0
  5  6  1  0
  5  7  1  0
  7  8  1  0
  8  9  2  0
  9 10  1  0
 10 11  2  0
 11 12  1  0
 12 13  1  0
 13 14  1  0
 14 15  1  0
 15 16  2  0
 15 17  1  0
 15 18  1  0
 12 19  2  0
  6  2  1  0
 19  8  1  0
 19  4  1  0
M  END
>  <shape_align_shape_tanimoto>  (1) 
0.66819670719721891

>  <shape_align_color_tanimoto>  (1) 
0.086939582584540279

>  <metric>  (1) 
shape

>  <metric_score>  (1) 
0.668

>  <template_pid>  (1) 
3KBZ

>  <template_shape_score>  (1) 
0.668

>  <template_color_score>  (1) 
0.087

>  <template_combo_score>  (1) 
0.378

$$$$
3KBZ_color_pose
     RDKit          3D

 19 21  0  0  0  0  0  0  0  0999 V2000
   58.7248   49.0820   25.6668 N   0  0  0  0  0  0  0  0  0  0  0  0
   57.3087   49.2774   25.7464 C   0  0  0  0  0  0  0  0  0  0  0  0
   56.3001   48.6694   25.7340 N   0  0  0  0  0  0  0  0  0  0  0  0
   55.0648   49.1173   25.8252 C   0  0  0  0  0  0  0  0  0  0  0  0
   54.9477   50.4640   25.9513 C   0  0  0  0  0  0  0  0  0  0  0  0
   56.6625   51.0268   25.9297 S   0  0  0  0  0  0  0  0  0  0  0  0
   53.5530   50.9216   26.0511 C   0  0  0  0  0  0  0  0  0  0  0  0
   52.8252   49.6364   25.9592 C   0  0  0  0  0  0  0  0  0  0  0  0
   51.4641   49.4228   25.9878 C   0  0  0  0  0  0  0  0  0  0  0  0
   50.9504   48.1533   25.8853 C   0  0  0  0  0  0  0  0  0  0  0  0
   51.8124   47.1123   25.7553 C   0  0  0  0  0  0  0  0  0  0  0  0
   53.2160   47.2404   25.7181 C   0  0  0  0  0  0  0  0  0  0  0  0
   53.9805   46.2841   25.6054 O   0  0  0  0  0  0  0  0  0  0  0  0
   54.6990   45.1627   25.4758 C   0  0  0  0  0  0  0  0  0  0  0  0
   54.3724   43.9684   26.8182 P   0  0  0  0  0  0  0  0  0  0  0  0
   55.3369   44.2124   27.9368 O   0  0  0  0  0  0  0  0  0  0  0  0
   54.3702   42.3849   26.2648 O   0  0  0  0  0  0  0  0  0  0  0  0
   52.8056   44.3471   27.3869 O   0  0  0  0  0  0  0  0  0  0  0  0
   53.6818   48.5800   25.8287 C   0  0  0  0  0  0  0  0  0  0  0  0
  1  2  1  0
  2  3  2  0
  3  4  1  0
  4  5  2  0
  5  6  1  0
  5  7  1  0
  7  8  1  0
  8  9  2  0
  9 10  1  0
 10 11  2  0
 11 12  1  0
 12 13  1  0
 13 14  1  0
 14 15  1  0
 15 16  2  0
 15 17  1  0
 15 18  1  0
 12 19  2  0
  6  2  1  0
 19  8  1  0
 19  4  1  0
M  END
>  <shape_align_shape_tanimoto>  (2) 
0.66819670719721891

>  <shape_align_color_tanimoto>  (2) 
0.086939582584540279

>  <metric>  (2) 
color

>  <metric_score>  (2) 
0.087

>  <template_pid>  (2) 
3KBZ

>  <template_shape_score>  (2) 
0.668

>  <template_color_score>  (2) 
0.087

>  <template_combo_score>  (2) 
0.378

$$$$
3KBZ_combo_pose
     RDKit          3D

 19 21  0  0  0  0  0  0  0  0999 V2000
   58.7248   49.0820   25.6668 N   0  0  0  0  0  0  0  0  0  0  0  0
   57.3087   49.2774   25.7464 C   0  0  0  0  0  0  0  0  0  0  0  0
   56.3001   48.6694   25.7340 N   0  0  0  0  0  0  0  0  0  0  0  0
   55.0648   49.1173   25.8252 C   0  0  0  0  0  0  0  0  0  0  0  0
   54.9477   50.4640   25.9513 C   0  0  0  0  0  0  0  0  0  0  0  0
   56.6625   51.0268   25.9297 S   0  0  0  0  0  0  0  0  0  0  0  0
   53.5530   50.9216   26.0511 C   0  0  0  0  0  0  0  0  0  0  0  0
   52.8252   49.6364   25.9592 C   0  0  0  0  0  0  0  0  0  0  0  0
   51.4641   49.4228   25.9878 C   0  0  0  0  0  0  0  0  0  0  0  0
   50.9504   48.1533   25.8853 C   0  0  0  0  0  0  0  0  0  0  0  0
   51.8124   47.1123   25.7553 C   0  0  0  0  0  0  0  0  0  0  0  0
   53.2160   47.2404   25.7181 C   0  0  0  0  0  0  0  0  0  0  0  0
   53.9805   46.2841   25.6054 O   0  0  0  0  0  0  0  0  0  0  0  0
   54.6990   45.1627   25.4758 C   0  0  0  0  0  0  0  0  0  0  0  0
   54.3724   43.9684   26.8182 P   0  0  0  0  0  0  0  0  0  0  0  0
   55.3369   44.2124   27.9368 O   0  0  0  0  0  0  0  0  0  0  0  0
   54.3702   42.3849   26.2648 O   0  0  0  0  0  0  0  0  0  0  0  0
   52.8056   44.3471   27.3869 O   0  0  0  0  0  0  0  0  0  0  0  0
   53.6818   48.5800   25.8287 C   0  0  0  0  0  0  0  0  0  0  0  0
  1  2  1  0
  2  3  2  0
  3  4  1  0
  4  5  2  0
  5  6  1  0
  5  7  1  0
  7  8  1  0
  8  9  2  0
  9 10  1  0
 10 11  2  0
 11 12  1  0
 12 13  1  0
 13 14  1  0
 14 15  1  0
 15 16  2  0
 15 17  1  0
 15 18  1  0
 12 19  2  0
  6  2  1  0
 19  8  1  0
 19  4  1  0
M  END
>  <shape_align_shape_tanimoto>  (3) 
0.66819670719721891

>  <shape_align_color_tanimoto>  (3) 
0.086939582584540279

>  <metric>  (3) 
combo

>  <metric_score>  (3) 
0.378

>  <template_pid>  (3) 
3KBZ

>  <template_shape_score>  (3) 
0.668

>  <template_color_score>  (3) 
0.087

>  <template_combo_score>  (3) 
0.378

$$$$
