5CXH_shape_pose
     RDKit          3D

 28 31  0  0  0  0  0  0  0  0999 V2000
  -81.7135  -10.8350    4.1197 C   0  0  0  0  0  0  0  0  0  0  0  0
  -82.2988  -11.1490    5.3926 O   0  0  0  0  0  0  0  0  0  0  0  0
  -83.6705  -11.3517    5.4574 C   0  0  0  0  0  0  0  0  0  0  0  0
  -84.4925  -11.2649    4.3559 C   0  0  0  0  0  0  0  0  0  0  0  0
  -85.8716  -11.4783    4.4736 C   0  0  0  0  0  0  0  0  0  0  0  0
  -86.4463  -11.7798    5.6862 C   0  0  0  0  0  0  0  0  0  0  0  0
  -87.8973  -12.0103    5.8426 C   0  0  0  0  0  0  0  0  0  0  0  0
  -88.7297  -11.9272    4.7531 C   0  0  0  0  0  0  0  0  0  0  0  0
  -90.1006  -12.1537    4.9483 C   0  0  0  0  0  0  0  0  0  0  0  0
  -91.0771  -12.1350    4.1015 N   0  0  0  0  0  0  0  0  0  0  0  0
  -92.2470  -12.3217    4.2321 C   0  0  0  0  0  0  0  0  0  0  0  0
  -92.2823  -12.6694    6.1086 S   0  0  0  0  0  0  0  0  0  0  0  0
  -90.4625  -12.4442    6.2629 C   0  0  0  0  0  0  0  0  0  0  0  0
  -89.6439  -12.5250    7.3297 C   0  0  0  0  0  0  0  0  0  0  0  0
  -89.9721  -12.8042    8.6080 O   0  0  0  0  0  0  0  0  0  0  0  0
  -91.1963  -13.0766    9.1667 C   0  0  2  0  0  0  0  0  0  0  0  0
  -91.5608  -12.0551   10.2425 C   0  0  0  0  0  0  0  0  0  0  0  0
  -91.1491  -14.4751    9.7723 C   0  0  1  0  0  0  0  0  0  0  0  0
  -92.4502  -14.8550   10.4065 C   0  0  0  0  0  0  0  0  0  0  0  0
  -92.8257  -16.1636    9.8979 N   0  0  0  0  0  0  0  0  0  0  0  0
  -92.1899  -16.3143    8.6489 C   0  0  0  0  0  0  0  0  0  0  0  0
  -92.5808  -17.0175    7.6786 O   0  0  0  0  0  0  0  0  0  0  0  0
  -90.9547  -15.4826    8.6778 C   0  0  0  0  0  0  0  0  0  0  0  0
  -88.3064  -12.2949    7.0892 N   0  0  0  0  0  0  0  0  0  0  0  0
  -85.6029  -11.8610    6.7736 C   0  0  0  0  0  0  0  0  0  0  0  0
  -84.2455  -11.6536    6.6725 C   0  0  0  0  0  0  0  0  0  0  0  0
  -83.4409  -11.7464    7.7933 O   0  0  0  0  0  0  0  0  0  0  0  0
  -83.9526  -12.0497    9.0642 C   0  0  0  0  0  0  0  0  0  0  0  0
  1  2  1  0
  2  3  1  0
  3  4  2  0
  4  5  1  0
  5  6  2  0
  6  7  1  0
  7  8  2  0
  8  9  1  0
  9 10  1  0
 10 11  2  0
 11 12  1  0
 12 13  1  0
 13 14  1  0
 14 15  1  0
 15 16  1  0
 16 17  1  1
 16 18  1  0
 18 19  1  6
 19 20  1  0
 20 21  1  0
 21 22  2  0
 21 23  1  0
 14 24  2  0
  6 25  1  0
 25 26  2  0
 26 27  1  0
 27 28  1  0
 26  3  1  0
 24  7  1  0
 13  9  2  0
 23 18  1  0
M  END
>  <shape_align_shape_tanimoto>  (1) 
0.53756093014798079

>  <shape_align_color_tanimoto>  (1) 
0.10735057755211694

>  <metric>  (1) 
shape

>  <metric_score>  (1) 
0.538

>  <template_pid>  (1) 
5CXH

>  <template_shape_score>  (1) 
0.538

>  <template_color_score>  (1) 
0.107

>  <template_combo_score>  (1) 
0.322

$$$$
5CXH_color_pose
     RDKit          3D

 28 31  0  0  0  0  0  0  0  0999 V2000
  -80.7096  -11.5999    7.8611 C   0  0  0  0  0  0  0  0  0  0  0  0
  -81.4010  -11.4079    6.6617 O   0  0  0  0  0  0  0  0  0  0  0  0
  -82.7732  -11.5264    6.5276 C   0  0  0  0  0  0  0  0  0  0  0  0
  -83.5751  -11.8528    7.6054 C   0  0  0  0  0  0  0  0  0  0  0  0
  -84.9619  -11.9656    7.4385 C   0  0  0  0  0  0  0  0  0  0  0  0
  -85.5438  -11.7554    6.2106 C   0  0  0  0  0  0  0  0  0  0  0  0
  -87.0139  -11.8843    6.0776 C   0  0  0  0  0  0  0  0  0  0  0  0
  -87.6567  -11.6870    4.8785 C   0  0  0  0  0  0  0  0  0  0  0  0
  -89.0565  -11.8282    4.8360 C   0  0  0  0  0  0  0  0  0  0  0  0
  -89.8597  -11.6870    3.8114 N   0  0  0  0  0  0  0  0  0  0  0  0
  -91.0169  -11.7981    3.7509 C   0  0  0  0  0  0  0  0  0  0  0  0
  -91.3902  -12.2405    5.5615 S   0  0  0  0  0  0  0  0  0  0  0  0
  -89.6589  -12.1525    6.0042 C   0  0  0  0  0  0  0  0  0  0  0  0
  -89.0152  -12.3508    7.2083 C   0  0  0  0  0  0  0  0  0  0  0  0
  -89.6000  -12.6757    8.3875 O   0  0  0  0  0  0  0  0  0  0  0  0
  -90.8936  -12.8993    8.7743 C   0  0  2  0  0  0  0  0  0  0  0  0
  -91.3826  -11.9113    9.8326 C   0  0  0  0  0  0  0  0  0  0  0  0
  -91.1143  -14.2783    9.3828 C   0  0  1  0  0  0  0  0  0  0  0  0
  -92.5570  -14.4175    9.7702 C   0  0  0  0  0  0  0  0  0  0  0  0
  -92.8521  -15.7889    9.4899 N   0  0  0  0  0  0  0  0  0  0  0  0
  -91.8297  -16.4267    8.7599 C   0  0  0  0  0  0  0  0  0  0  0  0
  -91.7730  -17.6518    8.5046 O   0  0  0  0  0  0  0  0  0  0  0  0
  -90.8429  -15.3657    8.3582 C   0  0  0  0  0  0  0  0  0  0  0  0
  -87.6516  -12.2079    7.2251 N   0  0  0  0  0  0  0  0  0  0  0  0
  -84.7309  -11.4323    5.1535 C   0  0  0  0  0  0  0  0  0  0  0  0
  -83.3536  -11.3150    5.2957 C   0  0  0  0  0  0  0  0  0  0  0  0
  -82.5381  -10.9931    4.2449 O   0  0  0  0  0  0  0  0  0  0  0  0
  -82.9913  -10.7476    2.9226 C   0  0  0  0  0  0  0  0  0  0  0  0
  1  2  1  0
  2  3  1  0
  3  4  2  0
  4  5  1  0
  5  6  2  0
  6  7  1  0
  7  8  2  0
  8  9  1  0
  9 10  1  0
 10 11  2  0
 11 12  1  0
 12 13  1  0
 13 14  1  0
 14 15  1  0
 15 16  1  0
 16 17  1  1
 16 18  1  0
 18 19  1  6
 19 20  1  0
 20 21  1  0
 21 22  2  0
 21 23  1  0
 14 24  2  0
  6 25  1  0
 25 26  2  0
 26 27  1  0
 27 28  1  0
 26  3  1  0
 24  7  1  0
 13  9  2  0
 23 18  1  0
M  END
>  <shape_align_shape_tanimoto>  (2) 
0.52846080157475128

>  <shape_align_color_tanimoto>  (2) 
0.13141439961256571

>  <metric>  (2) 
color

>  <metric_score>  (2) 
0.131

>  <template_pid>  (2) 
5CXH

>  <template_shape_score>  (2) 
0.528

>  <template_color_score>  (2) 
0.131

>  <template_combo_score>  (2) 
0.330

$$$$
5CXH_combo_pose
     RDKit          3D

 28 31  0  0  0  0  0  0  0  0999 V2000
  -80.7096  -11.5999    7.8611 C   0  0  0  0  0  0  0  0  0  0  0  0
  -81.4010  -11.4079    6.6617 O   0  0  0  0  0  0  0  0  0  0  0  0
  -82.7732  -11.5264    6.5276 C   0  0  0  0  0  0  0  0  0  0  0  0
  -83.5751  -11.8528    7.6054 C   0  0  0  0  0  0  0  0  0  0  0  0
  -84.9619  -11.9656    7.4385 C   0  0  0  0  0  0  0  0  0  0  0  0
  -85.5438  -11.7554    6.2106 C   0  0  0  0  0  0  0  0  0  0  0  0
  -87.0139  -11.8843    6.0776 C   0  0  0  0  0  0  0  0  0  0  0  0
  -87.6567  -11.6870    4.8785 C   0  0  0  0  0  0  0  0  0  0  0  0
  -89.0565  -11.8282    4.8360 C   0  0  0  0  0  0  0  0  0  0  0  0
  -89.8597  -11.6870    3.8114 N   0  0  0  0  0  0  0  0  0  0  0  0
  -91.0169  -11.7981    3.7509 C   0  0  0  0  0  0  0  0  0  0  0  0
  -91.3902  -12.2405    5.5615 S   0  0  0  0  0  0  0  0  0  0  0  0
  -89.6589  -12.1525    6.0042 C   0  0  0  0  0  0  0  0  0  0  0  0
  -89.0152  -12.3508    7.2083 C   0  0  0  0  0  0  0  0  0  0  0  0
  -89.6000  -12.6757    8.3875 O   0  0  0  0  0  0  0  0  0  0  0  0
  -90.8936  -12.8993    8.7743 C   0  0  2  0  0  0  0  0  0  0  0  0
  -91.3826  -11.9113    9.8326 C   0  0  0  0  0  0  0  0  0  0  0  0
  -91.1143  -14.2783    9.3828 C   0  0  1  0  0  0  0  0  0  0  0  0
  -92.5570  -14.4175    9.7702 C   0  0  0  0  0  0  0  0  0  0  0  0
  -92.8521  -15.7889    9.4899 N   0  0  0  0  0  0  0  0  0  0  0  0
  -91.8297  -16.4267    8.7599 C   0  0  0  0  0  0  0  0  0  0  0  0
  -91.7730  -17.6518    8.5046 O   0  0  0  0  0  0  0  0  0  0  0  0
  -90.8429  -15.3657    8.3582 C   0  0  0  0  0  0  0  0  0  0  0  0
  -87.6516  -12.2079    7.2251 N   0  0  0  0  0  0  0  0  0  0  0  0
  -84.7309  -11.4323    5.1535 C   0  0  0  0  0  0  0  0  0  0  0  0
  -83.3536  -11.3150    5.2957 C   0  0  0  0  0  0  0  0  0  0  0  0
  -82.5381  -10.9931    4.2449 O   0  0  0  0  0  0  0  0  0  0  0  0
  -82.9913  -10.7476    2.9226 C   0  0  0  0  0  0  0  0  0  0  0  0
  1  2  1  0
  2  3  1  0
  3  4  2  0
  4  5  1  0
  5  6  2  0
  6  7  1  0
  7  8  2  0
  8  9  1  0
  9 10  1  0
 10 11  2  0
 11 12  1  0
 12 13  1  0
 13 14  1  0
 14 15  1  0
 15 16  1  0
 16 17  1  1
 16 18  1  0
 18 19  1  6
 19 20  1  0
 20 21  1  0
 21 22  2  0
 21 23  1  0
 14 24  2  0
  6 25  1  0
 25 26  2  0
 26 27  1  0
 27 28  1  0
 26  3  1  0
 24  7  1  0
 13  9  2  0
 23 18  1  0
M  END
>  <shape_align_shape_tanimoto>  (3) 
0.52846080157475128

>  <shape_align_color_tanimoto>  (3) 
0.13141439961256571

>  <metric>  (3) 
combo

>  <metric_score>  (3) 
0.330

>  <template_pid>  (3) 
5CXH

>  <template_shape_score>  (3) 
0.528

>  <template_color_score>  (3) 
0.131

>  <template_combo_score>  (3) 
0.330

$$$$
