2QNP_shape_pose
     RDKit          3D

 41 45  0  0  0  0  0  0  0  0999 V2000
    7.9338   -1.4646   13.4038 O   0  0  0  0  0  0  0  0  0  0  0  0
    7.3412   -0.1335   13.8985 S   0  0  0  0  0  0  0  0  0  0  0  0
    8.3192    0.3261   14.9785 O   0  0  0  0  0  0  0  0  0  0  0  0
    7.4830    0.9159   12.5121 C   0  0  0  0  0  0  0  0  0  0  0  0
    7.6748    0.4744   11.2242 C   0  0  0  0  0  0  0  0  0  0  0  0
    7.7858    1.2975   10.1372 C   0  0  0  0  0  0  0  0  0  0  0  0
    7.7026    2.6464   10.3293 C   0  0  0  0  0  0  0  0  0  0  0  0
    7.5087    3.1687   11.6069 C   0  0  0  0  0  0  0  0  0  0  0  0
    7.4016    2.3020   12.6795 C   0  0  0  0  0  0  0  0  0  0  0  0
    5.7896   -0.3473   14.5196 N   0  0  0  0  0  0  0  0  0  0  0  0
    4.8724   -0.9265   13.6723 C   0  0  0  0  0  0  0  0  0  0  0  0
    3.9759   -0.0256   12.9351 C   0  0  0  0  0  0  0  0  0  0  0  0
    4.1319    0.3817   11.6342 C   0  0  0  0  0  0  0  0  0  0  0  0
    3.2783    1.2494   10.9867 C   0  0  0  0  0  0  0  0  0  0  0  0
    2.1969    1.7600   11.6398 C   0  0  0  0  0  0  0  0  0  0  0  0
    0.8366    3.0877   10.7459 I   0  0  0  0  0  0  0  0  0  0  0  0
    1.9955    1.3812   12.9474 C   0  0  0  0  0  0  0  0  0  0  0  0
    2.8653    0.4993   13.6031 C   0  0  0  0  0  0  0  0  0  0  0  0
    5.8446   -0.7148   15.8975 C   0  0  1  0  0  0  0  0  0  0  0  0
    5.2867    0.5558   16.6476 C   0  0  0  0  0  0  0  0  0  0  0  0
    5.3797    0.0378   18.0020 N   0  0  0  0  0  0  0  0  0  0  0  0
    4.9028   -1.3321   17.9191 C   0  0  0  0  0  0  0  0  0  0  0  0
    4.8115   -1.6259   16.4259 C   0  0  2  0  0  0  0  0  0  0  0  0
    4.7467   -2.9806   16.1200 N   0  0  0  0  0  0  0  0  0  0  0  0
    3.4558   -3.4541   16.5829 C   0  0  0  0  0  0  0  0  0  0  0  0
    2.6393   -4.1594   15.6102 C   0  0  0  0  0  0  0  0  0  0  0  0
    2.5028   -5.5193   15.4785 C   0  0  0  0  0  0  0  0  0  0  0  0
    1.7100   -6.1078   14.4957 C   0  0  0  0  0  0  0  0  0  0  0  0
    1.0163   -5.3251   13.5984 C   0  0  0  0  0  0  0  0  0  0  0  0
   -0.1672   -6.2597   12.1327 I   0  0  0  0  0  0  0  0  0  0  0  0
    1.1369   -3.9616   13.7112 C   0  0  0  0  0  0  0  0  0  0  0  0
    1.9246   -3.3887   14.6874 C   0  0  0  0  0  0  0  0  0  0  0  0
    5.9552   -4.0582   16.4876 S   0  0  0  0  0  0  0  0  0  0  0  0
    6.1482   -4.2415   17.9940 O   0  0  0  0  0  0  0  0  0  0  0  0
    5.5079   -5.4457   16.0074 O   0  0  0  0  0  0  0  0  0  0  0  0
    7.5229   -3.8319   15.7809 C   0  0  0  0  0  0  0  0  0  0  0  0
    8.5302   -3.0747   16.3391 C   0  0  0  0  0  0  0  0  0  0  0  0
    9.7795   -2.9527   15.7677 C   0  0  0  0  0  0  0  0  0  0  0  0
   10.0715   -3.6027   14.5849 C   0  0  0  0  0  0  0  0  0  0  0  0
    9.0792   -4.3757   13.9921 C   0  0  0  0  0  0  0  0  0  0  0  0
    7.8502   -4.4757   14.5846 C   0  0  0  0  0  0  0  0  0  0  0  0
  1  2  2  0
  2  3  2  0
  2  4  1  0
  4  5  2  0
  5  6  1  0
  6  7  2  0
  7  8  1  0
  8  9  2  0
  2 10  1  0
 10 11  1  0
 11 12  1  0
 12 13  2  0
 13 14  1  0
 14 15  2  0
 15 16  1  0
 15 17  1  0
 17 18  2  0
 19 10  1  6
 19 20  1  0
 20 21  1  0
 21 22  1  0
 22 23  1  0
 23 24  1  1
 24 25  1  0
 25 26  1  0
 26 27  2  0
 27 28  1  0
 28 29  2  0
 29 30  1  0
 29 31  1  0
 31 32  2  0
 24 33  1  0
 33 34  2  0
 33 35  2  0
 33 36  1  0
 36 37  2  0
 37 38  1  0
 38 39  2  0
 39 40  1  0
 40 41  2  0
  9  4  1  0
 18 12  1  0
 23 19  1  0
 32 26  1  0
 41 36  1  0
M  CHG  1  21   1
M  END
>  <shape_align_shape_tanimoto>  (1) 
0.67650247982306921

>  <shape_align_color_tanimoto>  (1) 
0.019957571792974749

>  <metric>  (1) 
shape

>  <metric_score>  (1) 
0.677

>  <template_pid>  (1) 
2QNP

>  <template_shape_score>  (1) 
0.677

>  <template_color_score>  (1) 
0.020

>  <template_combo_score>  (1) 
0.348

$$$$
2QNP_color_pose
     RDKit          3D

 41 45  0  0  0  0  0  0  0  0999 V2000
    8.8044   -1.0888   13.5010 O   0  0  0  0  0  0  0  0  0  0  0  0
    7.5887   -1.0307   12.6230 S   0  0  0  0  0  0  0  0  0  0  0  0
    8.0330   -1.9079   11.4630 O   0  0  0  0  0  0  0  0  0  0  0  0
    7.4636    0.5216   11.9173 C   0  0  0  0  0  0  0  0  0  0  0  0
    7.4618    1.5876   12.7669 C   0  0  0  0  0  0  0  0  0  0  0  0
    7.3954    2.8643   12.3300 C   0  0  0  0  0  0  0  0  0  0  0  0
    7.3275    3.0860   10.9790 C   0  0  0  0  0  0  0  0  0  0  0  0
    7.3278    2.0311   10.1064 C   0  0  0  0  0  0  0  0  0  0  0  0
    7.3964    0.7549   10.5958 C   0  0  0  0  0  0  0  0  0  0  0  0
    6.2736   -1.6938   13.2484 N   0  0  0  0  0  0  0  0  0  0  0  0
    5.2107   -1.9555   12.4187 C   0  0  0  0  0  0  0  0  0  0  0  0
    4.2288   -0.9067   12.2478 C   0  0  0  0  0  0  0  0  0  0  0  0
    3.2717   -0.7152   13.2121 C   0  0  0  0  0  0  0  0  0  0  0  0
    2.3142    0.2342   13.0849 C   0  0  0  0  0  0  0  0  0  0  0  0
    2.2706    1.0254   12.0020 C   0  0  0  0  0  0  0  0  0  0  0  0
    0.8296    2.4937   11.7555 I   0  0  0  0  0  0  0  0  0  0  0  0
    3.1978    0.8627   11.0341 C   0  0  0  0  0  0  0  0  0  0  0  0
    4.1468   -0.0924   11.1794 C   0  0  0  0  0  0  0  0  0  0  0  0
    6.2211   -2.3633   14.4477 C   0  0  1  0  0  0  0  0  0  0  0  0
    7.0337   -3.5329   14.5944 C   0  0  0  0  0  0  0  0  0  0  0  0
    7.6869   -3.4777   15.8419 N   0  0  0  0  0  0  0  0  0  0  0  0
    7.6179   -2.1307   16.2590 C   0  0  0  0  0  0  0  0  0  0  0  0
    6.4230   -1.5628   15.6475 C   0  0  2  0  0  0  0  0  0  0  0  0
    5.3571   -1.3548   16.4810 N   0  0  0  0  0  0  0  0  0  0  0  0
    4.7879   -0.0933   16.2842 C   0  0  0  0  0  0  0  0  0  0  0  0
    5.1373    0.9224   17.2359 C   0  0  0  0  0  0  0  0  0  0  0  0
    4.4533    1.2132   18.3592 C   0  0  0  0  0  0  0  0  0  0  0  0
    4.8253    2.1819   19.2339 C   0  0  0  0  0  0  0  0  0  0  0  0
    5.9312    2.9184   19.0079 C   0  0  0  0  0  0  0  0  0  0  0  0
    6.4458    4.3699   20.3651 I   0  0  0  0  0  0  0  0  0  0  0  0
    6.6343    2.6533   17.8967 C   0  0  0  0  0  0  0  0  0  0  0  0
    6.2602    1.6776   17.0149 C   0  0  0  0  0  0  0  0  0  0  0  0
    4.5688   -2.5024   17.2900 S   0  0  0  0  0  0  0  0  0  0  0  0
    5.3617   -3.1585   18.3670 O   0  0  0  0  0  0  0  0  0  0  0  0
    3.4324   -1.8775   18.0531 O   0  0  0  0  0  0  0  0  0  0  0  0
    3.8028   -3.6924   16.3207 C   0  0  0  0  0  0  0  0  0  0  0  0
    4.3237   -4.9043   16.0724 C   0  0  0  0  0  0  0  0  0  0  0  0
    3.7098   -5.8358   15.3107 C   0  0  0  0  0  0  0  0  0  0  0  0
    2.5095   -5.5806   14.7493 C   0  0  0  0  0  0  0  0  0  0  0  0
    1.9562   -4.3600   14.9833 C   0  0  0  0  0  0  0  0  0  0  0  0
    2.5818   -3.4389   15.7468 C   0  0  0  0  0  0  0  0  0  0  0  0
  1  2  2  0
  2  3  2  0
  2  4  1  0
  4  5  2  0
  5  6  1  0
  6  7  2  0
  7  8  1  0
  8  9  2  0
  2 10  1  0
 10 11  1  0
 11 12  1  0
 12 13  2  0
 13 14  1  0
 14 15  2  0
 15 16  1  0
 15 17  1  0
 17 18  2  0
 19 10  1  6
 19 20  1  0
 20 21  1  0
 21 22  1  0
 22 23  1  0
 23 24  1  1
 24 25  1  0
 25 26  1  0
 26 27  2  0
 27 28  1  0
 28 29  2  0
 29 30  1  0
 29 31  1  0
 31 32  2  0
 24 33  1  0
 33 34  2  0
 33 35  2  0
 33 36  1  0
 36 37  2  0
 37 38  1  0
 38 39  2  0
 39 40  1  0
 40 41  2  0
  9  4  1  0
 18 12  1  0
 23 19  1  0
 32 26  1  0
 41 36  1  0
M  CHG  1  21   1
M  END
>  <shape_align_shape_tanimoto>  (2) 
0.4867160898823269

>  <shape_align_color_tanimoto>  (2) 
0.10412134827988348

>  <metric>  (2) 
color

>  <metric_score>  (2) 
0.104

>  <template_pid>  (2) 
2QNP

>  <template_shape_score>  (2) 
0.487

>  <template_color_score>  (2) 
0.104

>  <template_combo_score>  (2) 
0.295

$$$$
2QNP_combo_pose
     RDKit          3D

 41 45  0  0  0  0  0  0  0  0999 V2000
    7.9338   -1.4646   13.4038 O   0  0  0  0  0  0  0  0  0  0  0  0
    7.3412   -0.1335   13.8985 S   0  0  0  0  0  0  0  0  0  0  0  0
    8.3192    0.3261   14.9785 O   0  0  0  0  0  0  0  0  0  0  0  0
    7.4830    0.9159   12.5121 C   0  0  0  0  0  0  0  0  0  0  0  0
    7.6748    0.4744   11.2242 C   0  0  0  0  0  0  0  0  0  0  0  0
    7.7858    1.2975   10.1372 C   0  0  0  0  0  0  0  0  0  0  0  0
    7.7026    2.6464   10.3293 C   0  0  0  0  0  0  0  0  0  0  0  0
    7.5087    3.1687   11.6069 C   0  0  0  0  0  0  0  0  0  0  0  0
    7.4016    2.3020   12.6795 C   0  0  0  0  0  0  0  0  0  0  0  0
    5.7896   -0.3473   14.5196 N   0  0  0  0  0  0  0  0  0  0  0  0
    4.8724   -0.9265   13.6723 C   0  0  0  0  0  0  0  0  0  0  0  0
    3.9759   -0.0256   12.9351 C   0  0  0  0  0  0  0  0  0  0  0  0
    4.1319    0.3817   11.6342 C   0  0  0  0  0  0  0  0  0  0  0  0
    3.2783    1.2494   10.9867 C   0  0  0  0  0  0  0  0  0  0  0  0
    2.1969    1.7600   11.6398 C   0  0  0  0  0  0  0  0  0  0  0  0
    0.8366    3.0877   10.7459 I   0  0  0  0  0  0  0  0  0  0  0  0
    1.9955    1.3812   12.9474 C   0  0  0  0  0  0  0  0  0  0  0  0
    2.8653    0.4993   13.6031 C   0  0  0  0  0  0  0  0  0  0  0  0
    5.8446   -0.7148   15.8975 C   0  0  1  0  0  0  0  0  0  0  0  0
    5.2867    0.5558   16.6476 C   0  0  0  0  0  0  0  0  0  0  0  0
    5.3797    0.0378   18.0020 N   0  0  0  0  0  0  0  0  0  0  0  0
    4.9028   -1.3321   17.9191 C   0  0  0  0  0  0  0  0  0  0  0  0
    4.8115   -1.6259   16.4259 C   0  0  2  0  0  0  0  0  0  0  0  0
    4.7467   -2.9806   16.1200 N   0  0  0  0  0  0  0  0  0  0  0  0
    3.4558   -3.4541   16.5829 C   0  0  0  0  0  0  0  0  0  0  0  0
    2.6393   -4.1594   15.6102 C   0  0  0  0  0  0  0  0  0  0  0  0
    2.5028   -5.5193   15.4785 C   0  0  0  0  0  0  0  0  0  0  0  0
    1.7100   -6.1078   14.4957 C   0  0  0  0  0  0  0  0  0  0  0  0
    1.0163   -5.3251   13.5984 C   0  0  0  0  0  0  0  0  0  0  0  0
   -0.1672   -6.2597   12.1327 I   0  0  0  0  0  0  0  0  0  0  0  0
    1.1369   -3.9616   13.7112 C   0  0  0  0  0  0  0  0  0  0  0  0
    1.9246   -3.3887   14.6874 C   0  0  0  0  0  0  0  0  0  0  0  0
    5.9552   -4.0582   16.4876 S   0  0  0  0  0  0  0  0  0  0  0  0
    6.1482   -4.2415   17.9940 O   0  0  0  0  0  0  0  0  0  0  0  0
    5.5079   -5.4457   16.0074 O   0  0  0  0  0  0  0  0  0  0  0  0
    7.5229   -3.8319   15.7809 C   0  0  0  0  0  0  0  0  0  0  0  0
    8.5302   -3.0747   16.3391 C   0  0  0  0  0  0  0  0  0  0  0  0
    9.7795   -2.9527   15.7677 C   0  0  0  0  0  0  0  0  0  0  0  0
   10.0715   -3.6027   14.5849 C   0  0  0  0  0  0  0  0  0  0  0  0
    9.0792   -4.3757   13.9921 C   0  0  0  0  0  0  0  0  0  0  0  0
    7.8502   -4.4757   14.5846 C   0  0  0  0  0  0  0  0  0  0  0  0
  1  2  2  0
  2  3  2  0
  2  4  1  0
  4  5  2  0
  5  6  1  0
  6  7  2  0
  7  8  1  0
  8  9  2  0
  2 10  1  0
 10 11  1  0
 11 12  1  0
 12 13  2  0
 13 14  1  0
 14 15  2  0
 15 16  1  0
 15 17  1  0
 17 18  2  0
 19 10  1  6
 19 20  1  0
 20 21  1  0
 21 22  1  0
 22 23  1  0
 23 24  1  1
 24 25  1  0
 25 26  1  0
 26 27  2  0
 27 28  1  0
 28 29  2  0
 29 30  1  0
 29 31  1  0
 31 32  2  0
 24 33  1  0
 33 34  2  0
 33 35  2  0
 33 36  1  0
 36 37  2  0
 37 38  1  0
 38 39  2  0
 39 40  1  0
 40 41  2  0
  9  4  1  0
 18 12  1  0
 23 19  1  0
 32 26  1  0
 41 36  1  0
M  CHG  1  21   1
M  END
>  <shape_align_shape_tanimoto>  (3) 
0.67650247982306921

>  <shape_align_color_tanimoto>  (3) 
0.019957571792974749

>  <metric>  (3) 
combo

>  <metric_score>  (3) 
0.348

>  <template_pid>  (3) 
2QNP

>  <template_shape_score>  (3) 
0.677

>  <template_color_score>  (3) 
0.020

>  <template_combo_score>  (3) 
0.348

$$$$
