2MNZ_shape_pose
     RDKit          3D

 80 79  0  0  0  0  0  0  0  0999 V2000
  -18.2912   -3.9846  -14.5469 C   0  0  0  0  0  0  0  0  0  0  0  0
  -19.6228   -4.3470  -13.9311 C   0  0  2  0  0  0  0  0  0  0  0  0
  -20.6310   -3.4031  -14.3472 N   0  0  0  0  0  0  0  0  0  0  0  0
  -19.4271   -4.2844  -12.4358 C   0  0  0  0  0  0  0  0  0  0  0  0
  -18.5875   -5.1023  -11.9840 O   0  0  0  0  0  0  0  0  0  0  0  0
  -20.1771   -3.3498  -11.7186 N   0  0  0  0  0  0  0  0  0  0  0  0
  -20.1723   -3.1297  -10.2804 C   0  0  1  0  0  0  0  0  0  0  0  0
  -19.5598   -4.2092   -9.4650 C   0  0  0  0  0  0  0  0  0  0  0  0
  -20.4098   -5.4395   -9.6948 C   0  0  0  0  0  0  0  0  0  0  0  0
  -20.0082   -6.6887   -9.0239 C   0  0  0  0  0  0  0  0  0  0  0  0
  -20.0369   -6.5540   -7.6020 N   0  0  0  0  0  0  0  0  0  0  0  0
  -19.7067   -7.7032   -6.8128 C   0  0  0  0  0  0  0  0  0  0  0  0
  -19.7024   -7.6965   -5.4062 N   0  0  0  0  0  0  0  0  0  0  0  0
  -19.3990   -8.8039   -7.4100 N   0  0  0  0  0  0  0  0  0  0  0  0
  -20.0638   -1.7388   -9.9235 C   0  0  0  0  0  0  0  0  0  0  0  0
  -20.1518   -0.9112  -10.9220 O   0  0  0  0  0  0  0  0  0  0  0  0
  -19.8814   -1.1231   -8.6661 N   0  0  0  0  0  0  0  0  0  0  0  0
  -19.8530    0.3069   -8.6070 C   0  0  2  0  0  0  0  0  0  0  0  0
  -18.6367    0.9876   -8.2613 C   0  0  0  0  0  0  0  0  0  0  0  0
  -18.6356    2.2736   -8.4800 O   0  0  0  0  0  0  0  0  0  0  0  0
  -17.4197    0.5089   -7.7198 N   0  0  0  0  0  0  0  0  0  0  0  0
  -16.3755    1.5063   -7.5414 C   0  0  1  0  0  0  0  0  0  0  0  0
  -16.5677    2.0948   -6.1290 C   0  0  0  0  0  0  0  0  0  0  0  0
  -16.4570    1.0617   -5.0532 C   0  0  0  0  0  0  0  0  0  0  0  0
  -16.6710    1.6801   -3.6646 C   0  0  0  0  0  0  0  0  0  0  0  0
  -16.5299    0.5392   -2.6780 C   0  0  0  0  0  0  0  0  0  0  0  0
  -15.2194   -0.0783   -2.7581 N   0  0  0  0  0  0  0  0  0  0  0  0
  -15.0088    1.0177   -7.6338 C   0  0  0  0  0  0  0  0  0  0  0  0
  -14.1308    1.8365   -8.0753 O   0  0  0  0  0  0  0  0  0  0  0  0
  -14.6073   -0.3249   -7.2539 N   0  0  0  0  0  0  0  0  0  0  0  0
  -13.2820   -0.8028   -7.3810 C   0  0  1  0  0  0  0  0  0  0  0  0
  -12.4069   -0.5935   -6.1651 C   0  0  0  0  0  0  0  0  0  0  0  0
  -12.2863    0.8465   -5.8230 C   0  0  0  0  0  0  0  0  0  0  0  0
  -11.3839    1.0524   -4.6218 C   0  0  0  0  0  0  0  0  0  0  0  0
  -11.1970    2.4184   -4.2510 N   0  0  0  0  0  0  0  0  0  0  0  0
  -10.8559    0.0887   -4.0199 O   0  0  0  0  0  0  0  0  0  0  0  0
  -13.2504   -2.2958   -7.6307 C   0  0  0  0  0  0  0  0  0  0  0  0
  -12.4537   -2.8136   -8.4383 O   0  0  0  0  0  0  0  0  0  0  0  0
  -14.1915   -3.0484   -6.8687 N   0  0  0  0  0  0  0  0  0  0  0  0
  -14.3884   -4.4565   -6.9439 C   0  0  2  0  0  0  0  0  0  0  0  0
  -15.6976   -4.8952   -6.4608 C   0  0  0  0  0  0  0  0  0  0  0  0
  -16.1048   -6.0627   -6.7439 O   0  0  0  0  0  0  0  0  0  0  0  0
  -16.5843   -4.1060   -5.6704 N   0  0  0  0  0  0  0  0  0  0  0  0
  -17.8567   -4.6792   -5.2790 C   0  0  1  0  0  0  0  0  0  0  0  0
  -17.6091   -5.4898   -3.9560 C   0  0  0  0  0  0  0  0  0  0  0  0
  -18.8821   -3.7045   -4.9043 C   0  0  0  0  0  0  0  0  0  0  0  0
  -18.5054   -2.4900   -4.7680 O   0  0  0  0  0  0  0  0  0  0  0  0
  -20.2303   -4.0994   -4.7036 N   0  0  0  0  0  0  0  0  0  0  0  0
  -21.2856   -3.1764   -4.3096 C   0  0  1  0  0  0  0  0  0  0  0  0
  -21.8198   -2.3836   -5.4339 C   0  0  0  0  0  0  0  0  0  0  0  0
  -22.4008   -3.0528   -6.6046 C   0  0  0  0  0  0  0  0  0  0  0  0
  -23.6088   -3.8815   -6.3032 C   0  0  0  0  0  0  0  0  0  0  0  0
  -24.6540   -3.0350   -5.7419 N   0  0  0  0  0  0  0  0  0  0  0  0
  -25.9045   -3.7021   -5.4776 C   0  0  0  0  0  0  0  0  0  0  0  0
  -26.9922   -2.9841   -4.9342 N   0  0  0  0  0  0  0  0  0  0  0  0
  -26.0417   -4.9559   -5.7356 N   0  0  0  0  0  0  0  0  0  0  0  0
  -22.2109   -3.8484   -3.3934 C   0  0  0  0  0  0  0  0  0  0  0  0
  -21.9487   -5.0693   -3.1482 O   0  0  0  0  0  0  0  0  0  0  0  0
  -23.2862   -3.1390   -2.8542 N   0  0  0  0  0  0  0  0  0  0  0  0
  -24.3217   -3.5218   -1.9596 C   0  0  1  0  0  0  0  0  0  0  0  0
  -24.4410   -5.0048   -1.6650 C   0  0  0  0  0  0  0  0  0  0  0  0
  -24.8283   -5.8519   -2.8128 C   0  0  0  0  0  0  0  0  0  0  0  0
  -24.8782   -7.3214   -2.3727 C   0  0  0  0  0  0  0  0  0  0  0  0
  -23.5462   -7.8035   -1.8778 C   0  0  0  0  0  0  0  0  0  0  0  0
  -23.6190   -9.2093   -1.4929 N   0  0  0  0  0  0  0  0  0  0  0  0
  -24.4387   -2.7384   -0.7383 C   0  0  0  0  0  0  0  0  0  0  0  0
  -25.3965   -3.0374    0.0582 O   0  0  0  0  0  0  0  0  0  0  0  0
  -23.6068   -1.6769   -0.3285 N   0  0  0  0  0  0  0  0  0  0  0  0
  -23.8538   -0.9864    0.9340 C   0  0  1  0  0  0  0  0  0  0  0  0
  -22.6759   -1.2232    1.8857 C   0  0  0  0  0  0  0  0  0  0  0  0
  -22.9487   -0.5572    3.0658 O   0  0  0  0  0  0  0  0  0  0  0  0
  -23.9519    0.4678    0.7035 C   0  0  0  0  0  0  0  0  0  0  0  0
  -23.0154    1.2469    0.9490 O   0  0  0  0  0  0  0  0  0  0  0  0
  -25.1219    0.9991    0.1970 O   0  0  0  0  0  0  0  0  0  0  0  0
  -13.3734   -5.2560   -6.1445 C   0  0  1  0  0  0  0  0  0  0  0  0
  -12.0202   -5.3335   -6.7714 C   0  0  0  0  0  0  0  0  0  0  0  0
  -13.3741   -4.9555   -4.7906 O   0  0  0  0  0  0  0  0  0  0  0  0
  -20.9894    0.8321   -7.7113 C   0  0  1  0  0  0  0  0  0  0  0  0
  -21.0414    2.3421   -7.7584 C   0  0  0  0  0  0  0  0  0  0  0  0
  -22.2007    0.4043   -8.2574 O   0  0  0  0  0  0  0  0  0  0  0  0
  2  1  1  6
  2  3  1  0
  2  4  1  0
  4  5  2  0
  4  6  1  0
  6  7  1  0
  7  8  1  1
  8  9  1  0
  9 10  1  0
 10 11  1  0
 11 12  1  0
 12 13  1  0
 12 14  2  0
  7 15  1  0
 15 16  2  0
 15 17  1  0
 18 17  1  1
 18 19  1  0
 19 20  2  0
 19 21  1  0
 21 22  1  0
 22 23  1  1
 23 24  1  0
 24 25  1  0
 25 26  1  0
 26 27  1  0
 22 28  1  0
 28 29  2  0
 28 30  1  0
 30 31  1  0
 31 32  1  1
 32 33  1  0
 33 34  1  0
 34 35  1  0
 34 36  2  0
 31 37  1  0
 37 38  2  0
 37 39  1  0
 40 39  1  1
 40 41  1  0
 41 42  2  0
 41 43  1  0
 43 44  1  0
 44 45  1  1
 44 46  1  0
 46 47  2  0
 46 48  1  0
 48 49  1  0
 49 50  1  6
 50 51  1  0
 51 52  1  0
 52 53  1  0
 53 54  1  0
 54 55  1  0
 54 56  2  0
 49 57  1  0
 57 58  2  0
 57 59  1  0
 59 60  1  0
 60 61  1  1
 61 62  1  0
 62 63  1  0
 63 64  1  0
 64 65  1  0
 60 66  1  0
 66 67  2  0
 66 68  1  0
 68 69  1  0
 69 70  1  1
 70 71  1  0
 69 72  1  0
 72 73  2  0
 72 74  1  0
 40 75  1  0
 75 76  1  6
 75 77  1  0
 18 78  1  0
 78 79  1  6
 78 80  1  0
M  CHG  6   3   1  14   1  27   1  56   1  65   1  74  -1
M  END
>  <shape_align_shape_tanimoto>  (1) 
0.35040537301043051

>  <shape_align_color_tanimoto>  (1) 
0.026377449855451193

>  <metric>  (1) 
shape

>  <metric_score>  (1) 
0.350

>  <template_pid>  (1) 
2MNZ

>  <template_shape_score>  (1) 
0.350

>  <template_color_score>  (1) 
0.026

>  <template_combo_score>  (1) 
0.188

$$$$
2MNZ_color_pose
     RDKit          3D

 80 79  0  0  0  0  0  0  0  0999 V2000
  -18.2842    1.2817  -11.1618 C   0  0  0  0  0  0  0  0  0  0  0  0
  -18.4213    0.7727   -9.7308 C   0  0  2  0  0  0  0  0  0  0  0  0
  -17.4328   -0.2499   -9.5553 N   0  0  0  0  0  0  0  0  0  0  0  0
  -19.7851    0.3808   -9.4044 C   0  0  0  0  0  0  0  0  0  0  0  0
  -20.6896    1.2722   -9.5803 O   0  0  0  0  0  0  0  0  0  0  0  0
  -20.1675   -0.9256   -8.9025 N   0  0  0  0  0  0  0  0  0  0  0  0
  -21.5841   -1.0896   -8.6318 C   0  0  1  0  0  0  0  0  0  0  0  0
  -22.1716   -2.0997   -9.6293 C   0  0  0  0  0  0  0  0  0  0  0  0
  -21.9415   -1.5697  -11.0356 C   0  0  0  0  0  0  0  0  0  0  0  0
  -22.5154   -2.5709  -12.0064 C   0  0  0  0  0  0  0  0  0  0  0  0
  -22.2881   -2.1462  -13.3794 N   0  0  0  0  0  0  0  0  0  0  0  0
  -22.7946   -2.9794  -14.4408 C   0  0  0  0  0  0  0  0  0  0  0  0
  -22.5728   -2.5889  -15.7897 N   0  0  0  0  0  0  0  0  0  0  0  0
  -23.4266   -4.0554  -14.1380 N   0  0  0  0  0  0  0  0  0  0  0  0
  -21.8825   -1.6012   -7.2772 C   0  0  0  0  0  0  0  0  0  0  0  0
  -23.0355   -1.5072   -6.7432 O   0  0  0  0  0  0  0  0  0  0  0  0
  -20.9033   -2.2538   -6.4490 N   0  0  0  0  0  0  0  0  0  0  0  0
  -21.2461   -2.7068   -5.1171 C   0  0  2  0  0  0  0  0  0  0  0  0
  -20.1730   -2.6152   -4.1153 C   0  0  0  0  0  0  0  0  0  0  0  0
  -20.3880   -2.7587   -2.8506 O   0  0  0  0  0  0  0  0  0  0  0  0
  -18.8381   -2.3671   -4.4957 N   0  0  0  0  0  0  0  0  0  0  0  0
  -17.6858   -2.2462   -3.6476 C   0  0  1  0  0  0  0  0  0  0  0  0
  -16.7493   -3.3958   -3.6288 C   0  0  0  0  0  0  0  0  0  0  0  0
  -16.0888   -3.7918   -4.8893 C   0  0  0  0  0  0  0  0  0  0  0  0
  -15.1861   -4.9855   -4.6372 C   0  0  0  0  0  0  0  0  0  0  0  0
  -15.8846   -6.1868   -4.0971 C   0  0  0  0  0  0  0  0  0  0  0  0
  -16.9356   -6.7299   -4.9177 N   0  0  0  0  0  0  0  0  0  0  0  0
  -17.0432   -0.9503   -4.0351 C   0  0  0  0  0  0  0  0  0  0  0  0
  -15.8507   -0.8267   -3.6473 O   0  0  0  0  0  0  0  0  0  0  0  0
  -17.7543    0.0288   -4.7770 N   0  0  0  0  0  0  0  0  0  0  0  0
  -17.2731    1.2612   -5.2399 C   0  0  1  0  0  0  0  0  0  0  0  0
  -17.4560    2.4164   -4.3490 C   0  0  0  0  0  0  0  0  0  0  0  0
  -16.8536    2.3514   -2.9787 C   0  0  0  0  0  0  0  0  0  0  0  0
  -17.4359    1.3661   -2.0503 C   0  0  0  0  0  0  0  0  0  0  0  0
  -16.5450    0.7758   -1.0583 N   0  0  0  0  0  0  0  0  0  0  0  0
  -18.6509    1.0359   -2.0913 O   0  0  0  0  0  0  0  0  0  0  0  0
  -16.0008    1.2541   -6.0140 C   0  0  0  0  0  0  0  0  0  0  0  0
  -15.5330    2.4003   -6.3092 O   0  0  0  0  0  0  0  0  0  0  0  0
  -15.3015    0.1123   -6.4377 N   0  0  0  0  0  0  0  0  0  0  0  0
  -14.0911    0.2577   -7.1893 C   0  0  2  0  0  0  0  0  0  0  0  0
  -13.8634   -0.8773   -8.1045 C   0  0  0  0  0  0  0  0  0  0  0  0
  -12.8691   -0.7605   -8.9011 O   0  0  0  0  0  0  0  0  0  0  0  0
  -14.6426   -2.0592   -8.1584 N   0  0  0  0  0  0  0  0  0  0  0  0
  -14.3339   -3.1472   -9.0762 C   0  0  1  0  0  0  0  0  0  0  0  0
  -13.2481   -4.0693   -8.5684 C   0  0  0  0  0  0  0  0  0  0  0  0
  -15.5209   -3.8855   -9.5082 C   0  0  0  0  0  0  0  0  0  0  0  0
  -16.6957   -3.3768   -9.5074 O   0  0  0  0  0  0  0  0  0  0  0  0
  -15.3981   -5.2373   -9.9506 N   0  0  0  0  0  0  0  0  0  0  0  0
  -16.4328   -6.0866  -10.4297 C   0  0  1  0  0  0  0  0  0  0  0  0
  -16.1166   -7.4697  -10.7723 C   0  0  0  0  0  0  0  0  0  0  0  0
  -15.1885   -7.8720  -11.8277 C   0  0  0  0  0  0  0  0  0  0  0  0
  -13.7689   -7.4123  -11.7402 C   0  0  0  0  0  0  0  0  0  0  0  0
  -13.1845   -7.8319  -10.4808 N   0  0  0  0  0  0  0  0  0  0  0  0
  -11.8804   -7.4035  -10.0776 C   0  0  0  0  0  0  0  0  0  0  0  0
  -11.3948   -7.8322   -8.8210 N   0  0  0  0  0  0  0  0  0  0  0  0
  -11.2262   -6.6352  -10.8648 N   0  0  0  0  0  0  0  0  0  0  0  0
  -17.5778   -6.0795   -9.3875 C   0  0  0  0  0  0  0  0  0  0  0  0
  -17.4483   -5.5361   -8.2873 O   0  0  0  0  0  0  0  0  0  0  0  0
  -18.7924   -6.7304   -9.7945 N   0  0  0  0  0  0  0  0  0  0  0  0
  -19.9640   -6.7242   -8.8135 C   0  0  1  0  0  0  0  0  0  0  0  0
  -21.1216   -6.3629   -9.6389 C   0  0  0  0  0  0  0  0  0  0  0  0
  -22.4808   -6.2456   -9.1273 C   0  0  0  0  0  0  0  0  0  0  0  0
  -23.1957   -7.4554   -8.6249 C   0  0  0  0  0  0  0  0  0  0  0  0
  -23.3233   -8.5281   -9.6948 C   0  0  0  0  0  0  0  0  0  0  0  0
  -24.0123   -9.6727   -9.1482 N   0  0  0  0  0  0  0  0  0  0  0  0
  -20.0074   -8.0447   -8.1854 C   0  0  0  0  0  0  0  0  0  0  0  0
  -19.5006   -9.0100   -8.8360 O   0  0  0  0  0  0  0  0  0  0  0  0
  -20.5421   -8.3344   -6.9208 N   0  0  0  0  0  0  0  0  0  0  0  0
  -20.5673   -9.6316   -6.2850 C   0  0  1  0  0  0  0  0  0  0  0  0
  -19.5076   -9.7216   -5.1966 C   0  0  0  0  0  0  0  0  0  0  0  0
  -19.6970   -8.7739   -4.2150 O   0  0  0  0  0  0  0  0  0  0  0  0
  -21.8386  -10.0141   -5.6799 C   0  0  0  0  0  0  0  0  0  0  0  0
  -22.8567  -10.4280   -6.3141 O   0  0  0  0  0  0  0  0  0  0  0  0
  -22.0076   -9.9368   -4.2884 O   0  0  0  0  0  0  0  0  0  0  0  0
  -12.8678    0.2274   -6.2552 C   0  0  1  0  0  0  0  0  0  0  0  0
  -12.6615   -1.1236   -5.6292 C   0  0  0  0  0  0  0  0  0  0  0  0
  -11.7850    0.4109   -7.1243 O   0  0  0  0  0  0  0  0  0  0  0  0
  -21.8347   -4.1098   -5.1607 C   0  0  1  0  0  0  0  0  0  0  0  0
  -22.0413   -4.7986   -3.8883 C   0  0  0  0  0  0  0  0  0  0  0  0
  -23.0031   -4.1513   -5.9189 O   0  0  0  0  0  0  0  0  0  0  0  0
  2  1  1  6
  2  3  1  0
  2  4  1  0
  4  5  2  0
  4  6  1  0
  6  7  1  0
  7  8  1  6
  8  9  1  0
  9 10  1  0
 10 11  1  0
 11 12  1  0
 12 13  1  0
 12 14  2  0
  7 15  1  0
 15 16  2  0
 15 17  1  0
 18 17  1  6
 18 19  1  0
 19 20  2  0
 19 21  1  0
 21 22  1  0
 22 23  1  6
 23 24  1  0
 24 25  1  0
 25 26  1  0
 26 27  1  0
 22 28  1  0
 28 29  2  0
 28 30  1  0
 30 31  1  0
 31 32  1  1
 32 33  1  0
 33 34  1  0
 34 35  1  0
 34 36  2  0
 31 37  1  0
 37 38  2  0
 37 39  1  0
 40 39  1  1
 40 41  1  0
 41 42  2  0
 41 43  1  0
 43 44  1  0
 44 45  1  1
 44 46  1  0
 46 47  2  0
 46 48  1  0
 48 49  1  0
 49 50  1  1
 50 51  1  0
 51 52  1  0
 52 53  1  0
 53 54  1  0
 54 55  1  0
 54 56  2  0
 49 57  1  0
 57 58  2  0
 57 59  1  0
 59 60  1  0
 60 61  1  6
 61 62  1  0
 62 63  1  0
 63 64  1  0
 64 65  1  0
 60 66  1  0
 66 67  2  0
 66 68  1  0
 68 69  1  0
 69 70  1  1
 70 71  1  0
 69 72  1  0
 72 73  2  0
 72 74  1  0
 40 75  1  0
 75 76  1  6
 75 77  1  0
 18 78  1  0
 78 79  1  1
 78 80  1  0
M  CHG  6   3   1  14   1  27   1  56   1  65   1  74  -1
M  END
>  <shape_align_shape_tanimoto>  (2) 
0.32163605788615596

>  <shape_align_color_tanimoto>  (2) 
0.063867213630262001

>  <metric>  (2) 
color

>  <metric_score>  (2) 
0.064

>  <template_pid>  (2) 
2MNZ

>  <template_shape_score>  (2) 
0.322

>  <template_color_score>  (2) 
0.064

>  <template_combo_score>  (2) 
0.193

$$$$
2MNZ_combo_pose
     RDKit          3D

 80 79  0  0  0  0  0  0  0  0999 V2000
  -18.2842    1.2817  -11.1618 C   0  0  0  0  0  0  0  0  0  0  0  0
  -18.4213    0.7727   -9.7308 C   0  0  2  0  0  0  0  0  0  0  0  0
  -17.4328   -0.2499   -9.5553 N   0  0  0  0  0  0  0  0  0  0  0  0
  -19.7851    0.3808   -9.4044 C   0  0  0  0  0  0  0  0  0  0  0  0
  -20.6896    1.2722   -9.5803 O   0  0  0  0  0  0  0  0  0  0  0  0
  -20.1675   -0.9256   -8.9025 N   0  0  0  0  0  0  0  0  0  0  0  0
  -21.5841   -1.0896   -8.6318 C   0  0  1  0  0  0  0  0  0  0  0  0
  -22.1716   -2.0997   -9.6293 C   0  0  0  0  0  0  0  0  0  0  0  0
  -21.9415   -1.5697  -11.0356 C   0  0  0  0  0  0  0  0  0  0  0  0
  -22.5154   -2.5709  -12.0064 C   0  0  0  0  0  0  0  0  0  0  0  0
  -22.2881   -2.1462  -13.3794 N   0  0  0  0  0  0  0  0  0  0  0  0
  -22.7946   -2.9794  -14.4408 C   0  0  0  0  0  0  0  0  0  0  0  0
  -22.5728   -2.5889  -15.7897 N   0  0  0  0  0  0  0  0  0  0  0  0
  -23.4266   -4.0554  -14.1380 N   0  0  0  0  0  0  0  0  0  0  0  0
  -21.8825   -1.6012   -7.2772 C   0  0  0  0  0  0  0  0  0  0  0  0
  -23.0355   -1.5072   -6.7432 O   0  0  0  0  0  0  0  0  0  0  0  0
  -20.9033   -2.2538   -6.4490 N   0  0  0  0  0  0  0  0  0  0  0  0
  -21.2461   -2.7068   -5.1171 C   0  0  2  0  0  0  0  0  0  0  0  0
  -20.1730   -2.6152   -4.1153 C   0  0  0  0  0  0  0  0  0  0  0  0
  -20.3880   -2.7587   -2.8506 O   0  0  0  0  0  0  0  0  0  0  0  0
  -18.8381   -2.3671   -4.4957 N   0  0  0  0  0  0  0  0  0  0  0  0
  -17.6858   -2.2462   -3.6476 C   0  0  1  0  0  0  0  0  0  0  0  0
  -16.7493   -3.3958   -3.6288 C   0  0  0  0  0  0  0  0  0  0  0  0
  -16.0888   -3.7918   -4.8893 C   0  0  0  0  0  0  0  0  0  0  0  0
  -15.1861   -4.9855   -4.6372 C   0  0  0  0  0  0  0  0  0  0  0  0
  -15.8846   -6.1868   -4.0971 C   0  0  0  0  0  0  0  0  0  0  0  0
  -16.9356   -6.7299   -4.9177 N   0  0  0  0  0  0  0  0  0  0  0  0
  -17.0432   -0.9503   -4.0351 C   0  0  0  0  0  0  0  0  0  0  0  0
  -15.8507   -0.8267   -3.6473 O   0  0  0  0  0  0  0  0  0  0  0  0
  -17.7543    0.0288   -4.7770 N   0  0  0  0  0  0  0  0  0  0  0  0
  -17.2731    1.2612   -5.2399 C   0  0  1  0  0  0  0  0  0  0  0  0
  -17.4560    2.4164   -4.3490 C   0  0  0  0  0  0  0  0  0  0  0  0
  -16.8536    2.3514   -2.9787 C   0  0  0  0  0  0  0  0  0  0  0  0
  -17.4359    1.3661   -2.0503 C   0  0  0  0  0  0  0  0  0  0  0  0
  -16.5450    0.7758   -1.0583 N   0  0  0  0  0  0  0  0  0  0  0  0
  -18.6509    1.0359   -2.0913 O   0  0  0  0  0  0  0  0  0  0  0  0
  -16.0008    1.2541   -6.0140 C   0  0  0  0  0  0  0  0  0  0  0  0
  -15.5330    2.4003   -6.3092 O   0  0  0  0  0  0  0  0  0  0  0  0
  -15.3015    0.1123   -6.4377 N   0  0  0  0  0  0  0  0  0  0  0  0
  -14.0911    0.2577   -7.1893 C   0  0  2  0  0  0  0  0  0  0  0  0
  -13.8634   -0.8773   -8.1045 C   0  0  0  0  0  0  0  0  0  0  0  0
  -12.8691   -0.7605   -8.9011 O   0  0  0  0  0  0  0  0  0  0  0  0
  -14.6426   -2.0592   -8.1584 N   0  0  0  0  0  0  0  0  0  0  0  0
  -14.3339   -3.1472   -9.0762 C   0  0  1  0  0  0  0  0  0  0  0  0
  -13.2481   -4.0693   -8.5684 C   0  0  0  0  0  0  0  0  0  0  0  0
  -15.5209   -3.8855   -9.5082 C   0  0  0  0  0  0  0  0  0  0  0  0
  -16.6957   -3.3768   -9.5074 O   0  0  0  0  0  0  0  0  0  0  0  0
  -15.3981   -5.2373   -9.9506 N   0  0  0  0  0  0  0  0  0  0  0  0
  -16.4328   -6.0866  -10.4297 C   0  0  1  0  0  0  0  0  0  0  0  0
  -16.1166   -7.4697  -10.7723 C   0  0  0  0  0  0  0  0  0  0  0  0
  -15.1885   -7.8720  -11.8277 C   0  0  0  0  0  0  0  0  0  0  0  0
  -13.7689   -7.4123  -11.7402 C   0  0  0  0  0  0  0  0  0  0  0  0
  -13.1845   -7.8319  -10.4808 N   0  0  0  0  0  0  0  0  0  0  0  0
  -11.8804   -7.4035  -10.0776 C   0  0  0  0  0  0  0  0  0  0  0  0
  -11.3948   -7.8322   -8.8210 N   0  0  0  0  0  0  0  0  0  0  0  0
  -11.2262   -6.6352  -10.8648 N   0  0  0  0  0  0  0  0  0  0  0  0
  -17.5778   -6.0795   -9.3875 C   0  0  0  0  0  0  0  0  0  0  0  0
  -17.4483   -5.5361   -8.2873 O   0  0  0  0  0  0  0  0  0  0  0  0
  -18.7924   -6.7304   -9.7945 N   0  0  0  0  0  0  0  0  0  0  0  0
  -19.9640   -6.7242   -8.8135 C   0  0  1  0  0  0  0  0  0  0  0  0
  -21.1216   -6.3629   -9.6389 C   0  0  0  0  0  0  0  0  0  0  0  0
  -22.4808   -6.2456   -9.1273 C   0  0  0  0  0  0  0  0  0  0  0  0
  -23.1957   -7.4554   -8.6249 C   0  0  0  0  0  0  0  0  0  0  0  0
  -23.3233   -8.5281   -9.6948 C   0  0  0  0  0  0  0  0  0  0  0  0
  -24.0123   -9.6727   -9.1482 N   0  0  0  0  0  0  0  0  0  0  0  0
  -20.0074   -8.0447   -8.1854 C   0  0  0  0  0  0  0  0  0  0  0  0
  -19.5006   -9.0100   -8.8360 O   0  0  0  0  0  0  0  0  0  0  0  0
  -20.5421   -8.3344   -6.9208 N   0  0  0  0  0  0  0  0  0  0  0  0
  -20.5673   -9.6316   -6.2850 C   0  0  1  0  0  0  0  0  0  0  0  0
  -19.5076   -9.7216   -5.1966 C   0  0  0  0  0  0  0  0  0  0  0  0
  -19.6970   -8.7739   -4.2150 O   0  0  0  0  0  0  0  0  0  0  0  0
  -21.8386  -10.0141   -5.6799 C   0  0  0  0  0  0  0  0  0  0  0  0
  -22.8567  -10.4280   -6.3141 O   0  0  0  0  0  0  0  0  0  0  0  0
  -22.0076   -9.9368   -4.2884 O   0  0  0  0  0  0  0  0  0  0  0  0
  -12.8678    0.2274   -6.2552 C   0  0  1  0  0  0  0  0  0  0  0  0
  -12.6615   -1.1236   -5.6292 C   0  0  0  0  0  0  0  0  0  0  0  0
  -11.7850    0.4109   -7.1243 O   0  0  0  0  0  0  0  0  0  0  0  0
  -21.8347   -4.1098   -5.1607 C   0  0  1  0  0  0  0  0  0  0  0  0
  -22.0413   -4.7986   -3.8883 C   0  0  0  0  0  0  0  0  0  0  0  0
  -23.0031   -4.1513   -5.9189 O   0  0  0  0  0  0  0  0  0  0  0  0
  2  1  1  6
  2  3  1  0
  2  4  1  0
  4  5  2  0
  4  6  1  0
  6  7  1  0
  7  8  1  6
  8  9  1  0
  9 10  1  0
 10 11  1  0
 11 12  1  0
 12 13  1  0
 12 14  2  0
  7 15  1  0
 15 16  2  0
 15 17  1  0
 18 17  1  6
 18 19  1  0
 19 20  2  0
 19 21  1  0
 21 22  1  0
 22 23  1  6
 23 24  1  0
 24 25  1  0
 25 26  1  0
 26 27  1  0
 22 28  1  0
 28 29  2  0
 28 30  1  0
 30 31  1  0
 31 32  1  1
 32 33  1  0
 33 34  1  0
 34 35  1  0
 34 36  2  0
 31 37  1  0
 37 38  2  0
 37 39  1  0
 40 39  1  1
 40 41  1  0
 41 42  2  0
 41 43  1  0
 43 44  1  0
 44 45  1  1
 44 46  1  0
 46 47  2  0
 46 48  1  0
 48 49  1  0
 49 50  1  1
 50 51  1  0
 51 52  1  0
 52 53  1  0
 53 54  1  0
 54 55  1  0
 54 56  2  0
 49 57  1  0
 57 58  2  0
 57 59  1  0
 59 60  1  0
 60 61  1  6
 61 62  1  0
 62 63  1  0
 63 64  1  0
 64 65  1  0
 60 66  1  0
 66 67  2  0
 66 68  1  0
 68 69  1  0
 69 70  1  1
 70 71  1  0
 69 72  1  0
 72 73  2  0
 72 74  1  0
 40 75  1  0
 75 76  1  6
 75 77  1  0
 18 78  1  0
 78 79  1  1
 78 80  1  0
M  CHG  6   3   1  14   1  27   1  56   1  65   1  74  -1
M  END
>  <shape_align_shape_tanimoto>  (3) 
0.32163605788615596

>  <shape_align_color_tanimoto>  (3) 
0.063867213630262001

>  <metric>  (3) 
combo

>  <metric_score>  (3) 
0.193

>  <template_pid>  (3) 
2MNZ

>  <template_shape_score>  (3) 
0.322

>  <template_color_score>  (3) 
0.064

>  <template_combo_score>  (3) 
0.193

$$$$
