6E3Z_shape_pose
     RDKit          3D

 30 32  0  0  0  0  0  0  0  0999 V2000
   28.7231   73.2573   22.2523 C   0  0  0  0  0  0  0  0  0  0  0  0
   29.1176   73.8484   20.9171 C   0  0  2  0  0  0  0  0  0  0  0  0
   29.2333   75.3167   21.0262 C   0  0  0  0  0  0  0  0  0  0  0  0
   28.4586   76.1583   20.2197 C   0  0  0  0  0  0  0  0  0  0  0  0
   28.5832   77.5249   20.2001 C   0  0  0  0  0  0  0  0  0  0  0  0
   27.7290   78.2536   19.3314 N   0  0  0  0  0  0  0  0  0  0  0  0
   27.7123   79.6477   19.1722 C   0  0  0  0  0  0  0  0  0  0  0  0
   28.4612   80.4126   19.7890 O   0  0  0  0  0  0  0  0  0  0  0  0
   26.7620   80.2695   18.2255 C   0  0  0  0  0  0  0  0  0  0  0  0
   25.9029   79.5178   17.5049 N   0  0  0  0  0  0  0  0  0  0  0  0
   25.0260   80.0543   16.6351 C   0  0  0  0  0  0  0  0  0  0  0  0
   24.9470   81.4232   16.4206 C   0  0  0  0  0  0  0  0  0  0  0  0
   23.8072   82.1276   15.2894 Cl  0  0  0  0  0  0  0  0  0  0  0  0
   25.8215   82.2136   17.1516 C   0  0  0  0  0  0  0  0  0  0  0  0
   26.7096   81.6343   18.0362 C   0  0  0  0  0  0  0  0  0  0  0  0
   27.8055   82.6481   18.9497 Cl  0  0  0  0  0  0  0  0  0  0  0  0
   29.5223   78.0909   21.0197 C   0  0  0  0  0  0  0  0  0  0  0  0
   30.3301   77.3263   21.8513 C   0  0  0  0  0  0  0  0  0  0  0  0
   30.1542   75.9623   21.8252 C   0  0  0  0  0  0  0  0  0  0  0  0
   30.9042   75.2578   22.7312 F   0  0  0  0  0  0  0  0  0  0  0  0
   27.8996   73.6369   20.0644 N   0  0  0  0  0  0  0  0  0  0  0  0
   27.9147   72.8798   18.8867 C   0  0  0  0  0  0  0  0  0  0  0  0
   26.8054   72.5821   18.3110 N   0  0  0  0  0  0  0  0  0  0  0  0
   29.2059   72.4238   18.3068 C   0  0  0  0  0  0  0  0  0  0  0  0
   30.1514   73.2798   18.8281 O   0  0  0  0  0  0  0  0  0  0  0  0
   30.2215   73.1157   20.2588 C   0  0  1  0  0  0  0  0  0  0  0  0
   31.6327   73.2484   20.5938 C   0  0  0  0  0  0  0  0  0  0  0  0
   32.2478   74.4442   20.4587 F   0  0  0  0  0  0  0  0  0  0  0  0
   32.3823   72.3844   19.7281 F   0  0  0  0  0  0  0  0  0  0  0  0
   31.9812   72.7199   21.8479 F   0  0  0  0  0  0  0  0  0  0  0  0
  2  1  1  1
  2  3  1  0
  3  4  2  0
  4  5  1  0
  5  6  1  0
  6  7  1  0
  7  8  2  0
  7  9  1  0
  9 10  2  0
 10 11  1  0
 11 12  2  0
 12 13  1  0
 12 14  1  0
 14 15  2  0
 15 16  1  0
  5 17  2  0
 17 18  1  0
 18 19  2  0
 19 20  1  0
  2 21  1  0
 21 22  1  0
 22 23  2  0
 22 24  1  0
 24 25  1  0
 25 26  1  0
 26 27  1  1
 27 28  1  0
 27 29  1  0
 27 30  1  0
 26  2  1  0
 19  3  1  0
 15  9  1  0
M  CHG  1  23   1
M  END
>  <shape_align_shape_tanimoto>  (1) 
0.83651222136076997

>  <shape_align_color_tanimoto>  (1) 
0.12350334695237442

>  <metric>  (1) 
shape

>  <metric_score>  (1) 
0.837

>  <template_pid>  (1) 
6E3Z

>  <template_shape_score>  (1) 
0.837

>  <template_color_score>  (1) 
0.124

>  <template_combo_score>  (1) 
0.480

$$$$
6E3Z_color_pose
     RDKit          3D

 30 32  0  0  0  0  0  0  0  0999 V2000
   31.1905   73.5196   20.6283 C   0  0  0  0  0  0  0  0  0  0  0  0
   29.7492   73.8595   20.8854 C   0  0  2  0  0  0  0  0  0  0  0  0
   29.6040   75.3302   20.9470 C   0  0  0  0  0  0  0  0  0  0  0  0
   28.8227   76.0770   20.1218 C   0  0  0  0  0  0  0  0  0  0  0  0
   28.6976   77.4731   20.1849 C   0  0  0  0  0  0  0  0  0  0  0  0
   27.8456   78.1403   19.2611 N   0  0  0  0  0  0  0  0  0  0  0  0
   27.5898   79.5007   19.1631 C   0  0  0  0  0  0  0  0  0  0  0  0
   28.1935   80.2588   20.0076 O   0  0  0  0  0  0  0  0  0  0  0  0
   26.7337   80.2101   18.2412 C   0  0  0  0  0  0  0  0  0  0  0  0
   26.6979   81.5723   18.3929 N   0  0  0  0  0  0  0  0  0  0  0  0
   25.9558   82.3847   17.6227 C   0  0  0  0  0  0  0  0  0  0  0  0
   25.1643   81.8941   16.6076 C   0  0  0  0  0  0  0  0  0  0  0  0
   24.1992   82.9444   15.6051 Cl  0  0  0  0  0  0  0  0  0  0  0  0
   25.1744   80.5290   16.4249 C   0  0  0  0  0  0  0  0  0  0  0  0
   25.9613   79.6996   17.2462 C   0  0  0  0  0  0  0  0  0  0  0  0
   25.8863   78.0087   16.9175 Cl  0  0  0  0  0  0  0  0  0  0  0  0
   29.4312   78.0891   21.1620 C   0  0  0  0  0  0  0  0  0  0  0  0
   30.2469   77.3580   22.0323 C   0  0  0  0  0  0  0  0  0  0  0  0
   30.3289   75.9903   21.9220 C   0  0  0  0  0  0  0  0  0  0  0  0
   31.1274   75.3609   22.8205 F   0  0  0  0  0  0  0  0  0  0  0  0
   29.3050   73.3897   22.2218 N   0  0  0  0  0  0  0  0  0  0  0  0
   27.9116   73.0360   22.2647 C   0  0  0  0  0  0  0  0  0  0  0  0
   27.5005   72.3883   23.3035 N   0  0  0  0  0  0  0  0  0  0  0  0
   26.9680   73.3870   21.1784 C   0  0  0  0  0  0  0  0  0  0  0  0
   27.5515   73.4966   19.9238 O   0  0  0  0  0  0  0  0  0  0  0  0
   28.8889   73.1401   19.9234 C   0  0  1  0  0  0  0  0  0  0  0  0
   29.4285   72.9421   18.5589 C   0  0  0  0  0  0  0  0  0  0  0  0
   30.6120   72.1878   18.5209 F   0  0  0  0  0  0  0  0  0  0  0  0
   29.7617   74.0973   17.8759 F   0  0  0  0  0  0  0  0  0  0  0  0
   28.5329   72.1868   17.7877 F   0  0  0  0  0  0  0  0  0  0  0  0
  2  1  1  6
  2  3  1  0
  3  4  2  0
  4  5  1  0
  5  6  1  0
  6  7  1  0
  7  8  2  0
  7  9  1  0
  9 10  2  0
 10 11  1  0
 11 12  2  0
 12 13  1  0
 12 14  1  0
 14 15  2  0
 15 16  1  0
  5 17  2  0
 17 18  1  0
 18 19  2  0
 19 20  1  0
  2 21  1  0
 21 22  1  0
 22 23  2  0
 22 24  1  0
 24 25  1  0
 25 26  1  0
 26 27  1  6
 27 28  1  0
 27 29  1  0
 27 30  1  0
 26  2  1  0
 19  3  1  0
 15  9  1  0
M  CHG  1  23   1
M  END
>  <shape_align_shape_tanimoto>  (2) 
0.77312454300020861

>  <shape_align_color_tanimoto>  (2) 
0.13473547698110361

>  <metric>  (2) 
color

>  <metric_score>  (2) 
0.135

>  <template_pid>  (2) 
6E3Z

>  <template_shape_score>  (2) 
0.773

>  <template_color_score>  (2) 
0.135

>  <template_combo_score>  (2) 
0.454

$$$$
6E3Z_combo_pose
     RDKit          3D

 30 32  0  0  0  0  0  0  0  0999 V2000
   28.7231   73.2573   22.2523 C   0  0  0  0  0  0  0  0  0  0  0  0
   29.1176   73.8484   20.9171 C   0  0  2  0  0  0  0  0  0  0  0  0
   29.2333   75.3167   21.0262 C   0  0  0  0  0  0  0  0  0  0  0  0
   28.4586   76.1583   20.2197 C   0  0  0  0  0  0  0  0  0  0  0  0
   28.5832   77.5249   20.2001 C   0  0  0  0  0  0  0  0  0  0  0  0
   27.7290   78.2536   19.3314 N   0  0  0  0  0  0  0  0  0  0  0  0
   27.7123   79.6477   19.1722 C   0  0  0  0  0  0  0  0  0  0  0  0
   28.4612   80.4126   19.7890 O   0  0  0  0  0  0  0  0  0  0  0  0
   26.7620   80.2695   18.2255 C   0  0  0  0  0  0  0  0  0  0  0  0
   25.9029   79.5178   17.5049 N   0  0  0  0  0  0  0  0  0  0  0  0
   25.0260   80.0543   16.6351 C   0  0  0  0  0  0  0  0  0  0  0  0
   24.9470   81.4232   16.4206 C   0  0  0  0  0  0  0  0  0  0  0  0
   23.8072   82.1276   15.2894 Cl  0  0  0  0  0  0  0  0  0  0  0  0
   25.8215   82.2136   17.1516 C   0  0  0  0  0  0  0  0  0  0  0  0
   26.7096   81.6343   18.0362 C   0  0  0  0  0  0  0  0  0  0  0  0
   27.8055   82.6481   18.9497 Cl  0  0  0  0  0  0  0  0  0  0  0  0
   29.5223   78.0909   21.0197 C   0  0  0  0  0  0  0  0  0  0  0  0
   30.3301   77.3263   21.8513 C   0  0  0  0  0  0  0  0  0  0  0  0
   30.1542   75.9623   21.8252 C   0  0  0  0  0  0  0  0  0  0  0  0
   30.9042   75.2578   22.7312 F   0  0  0  0  0  0  0  0  0  0  0  0
   27.8996   73.6369   20.0644 N   0  0  0  0  0  0  0  0  0  0  0  0
   27.9147   72.8798   18.8867 C   0  0  0  0  0  0  0  0  0  0  0  0
   26.8054   72.5821   18.3110 N   0  0  0  0  0  0  0  0  0  0  0  0
   29.2059   72.4238   18.3068 C   0  0  0  0  0  0  0  0  0  0  0  0
   30.1514   73.2798   18.8281 O   0  0  0  0  0  0  0  0  0  0  0  0
   30.2215   73.1157   20.2588 C   0  0  1  0  0  0  0  0  0  0  0  0
   31.6327   73.2484   20.5938 C   0  0  0  0  0  0  0  0  0  0  0  0
   32.2478   74.4442   20.4587 F   0  0  0  0  0  0  0  0  0  0  0  0
   32.3823   72.3844   19.7281 F   0  0  0  0  0  0  0  0  0  0  0  0
   31.9812   72.7199   21.8479 F   0  0  0  0  0  0  0  0  0  0  0  0
  2  1  1  1
  2  3  1  0
  3  4  2  0
  4  5  1  0
  5  6  1  0
  6  7  1  0
  7  8  2  0
  7  9  1  0
  9 10  2  0
 10 11  1  0
 11 12  2  0
 12 13  1  0
 12 14  1  0
 14 15  2  0
 15 16  1  0
  5 17  2  0
 17 18  1  0
 18 19  2  0
 19 20  1  0
  2 21  1  0
 21 22  1  0
 22 23  2  0
 22 24  1  0
 24 25  1  0
 25 26  1  0
 26 27  1  1
 27 28  1  0
 27 29  1  0
 27 30  1  0
 26  2  1  0
 19  3  1  0
 15  9  1  0
M  CHG  1  23   1
M  END
>  <shape_align_shape_tanimoto>  (3) 
0.83651222136076997

>  <shape_align_color_tanimoto>  (3) 
0.12350334695237442

>  <metric>  (3) 
combo

>  <metric_score>  (3) 
0.480

>  <template_pid>  (3) 
6E3Z

>  <template_shape_score>  (3) 
0.837

>  <template_color_score>  (3) 
0.124

>  <template_combo_score>  (3) 
0.480

$$$$
