6TE6_shape_pose
     RDKit          3D

 32 35  0  0  0  0  0  0  0  0999 V2000
   -9.9966    1.1976  -18.0788 C   0  0  0  0  0  0  0  0  0  0  0  0
  -11.5801    0.8565  -18.7982 S   0  0  0  0  0  0  0  0  0  0  0  0
  -11.6749    1.5888  -20.1006 O   0  0  0  0  0  0  0  0  0  0  0  0
  -11.7285   -0.6104  -19.1130 O   0  0  0  0  0  0  0  0  0  0  0  0
  -12.8466    1.4549  -17.7607 C   0  0  0  0  0  0  0  0  0  0  0  0
  -13.1796    2.7890  -17.8007 C   0  0  0  0  0  0  0  0  0  0  0  0
  -14.1939    3.2437  -17.0202 C   0  0  0  0  0  0  0  0  0  0  0  0
  -14.9624    2.4882  -16.1557 C   0  0  0  0  0  0  0  0  0  0  0  0
  -16.0516    2.9578  -15.4245 N   0  0  0  0  0  0  0  0  0  0  0  0
  -16.5734    4.2835  -15.2959 C   0  0  1  0  0  0  0  0  0  0  0  0
  -15.9439    5.1066  -14.2387 C   0  0  0  0  0  0  0  0  0  0  0  0
  -14.5976    5.1923  -14.0011 C   0  0  0  0  0  0  0  0  0  0  0  0
  -14.1069    5.9956  -12.9728 C   0  0  0  0  0  0  0  0  0  0  0  0
  -14.9531    6.7324  -12.1567 C   0  0  0  0  0  0  0  0  0  0  0  0
  -16.3065    6.6504  -12.3907 C   0  0  0  0  0  0  0  0  0  0  0  0
  -17.4222    7.5657  -11.3759 Cl  0  0  0  0  0  0  0  0  0  0  0  0
  -16.7884    5.8578  -13.4056 C   0  0  0  0  0  0  0  0  0  0  0  0
  -16.6413    5.0423  -16.5815 C   0  0  0  0  0  0  0  0  0  0  0  0
  -16.2523    6.3787  -16.5445 C   0  0  0  0  0  0  0  0  0  0  0  0
  -16.2432    7.1865  -17.6538 C   0  0  0  0  0  0  0  0  0  0  0  0
  -16.6502    6.5959  -18.8463 C   0  0  0  0  0  0  0  0  0  0  0  0
  -17.0284    5.2717  -18.8421 C   0  0  0  0  0  0  0  0  0  0  0  0
  -17.0315    4.4933  -17.7430 N   0  0  0  0  0  0  0  0  0  0  0  0
  -14.6083    1.1157  -16.1187 C   0  0  0  0  0  0  0  0  0  0  0  0
  -15.2618    0.1830  -15.2857 N   0  0  0  0  0  0  0  0  0  0  0  0
  -14.8460   -1.1969  -15.1689 C   0  0  0  0  0  0  0  0  0  0  0  0
  -15.8303   -2.1343  -15.1954 N   0  0  0  0  0  0  0  0  0  0  0  0
  -15.5211   -3.4455  -15.0647 C   0  0  0  0  0  0  0  0  0  0  0  0
  -14.1869   -3.8332  -14.9030 C   0  0  0  0  0  0  0  0  0  0  0  0
  -13.1956   -2.8684  -14.8778 C   0  0  0  0  0  0  0  0  0  0  0  0
  -13.5713   -1.5640  -15.0144 N   0  0  0  0  0  0  0  0  0  0  0  0
  -13.5771    0.6541  -16.9130 C   0  0  0  0  0  0  0  0  0  0  0  0
  1  2  1  0
  2  3  2  0
  2  4  2  0
  2  5  1  0
  5  6  2  0
  6  7  1  0
  7  8  2  0
  8  9  1  0
 10  9  1  6
 10 11  1  0
 11 12  2  0
 12 13  1  0
 13 14  2  0
 14 15  1  0
 15 16  1  0
 15 17  2  0
 10 18  1  0
 18 19  2  0
 19 20  1  0
 20 21  2  0
 21 22  1  0
 22 23  2  0
  8 24  1  0
 24 25  1  0
 25 26  1  0
 26 27  2  0
 27 28  1  0
 28 29  2  0
 29 30  1  0
 30 31  2  0
 24 32  2  0
 32  5  1  0
 17 11  1  0
 23 18  1  0
 31 26  1  0
M  END
>  <shape_align_shape_tanimoto>  (1) 
0.48007634283977996

>  <shape_align_color_tanimoto>  (1) 
0.034560009901854503

>  <metric>  (1) 
shape

>  <metric_score>  (1) 
0.480

>  <template_pid>  (1) 
6TE6

>  <template_shape_score>  (1) 
0.480

>  <template_color_score>  (1) 
0.035

>  <template_combo_score>  (1) 
0.257

$$$$
6TE6_color_pose
     RDKit          3D

 32 35  0  0  0  0  0  0  0  0999 V2000
  -14.8572    2.0823  -22.6111 C   0  0  0  0  0  0  0  0  0  0  0  0
  -13.4573    2.4261  -21.5413 S   0  0  0  0  0  0  0  0  0  0  0  0
  -13.5143    3.8842  -21.1259 O   0  0  0  0  0  0  0  0  0  0  0  0
  -12.2019    2.2365  -22.3617 O   0  0  0  0  0  0  0  0  0  0  0  0
  -13.4848    1.3754  -20.1991 C   0  0  0  0  0  0  0  0  0  0  0  0
  -12.9928    0.1090  -20.2646 C   0  0  0  0  0  0  0  0  0  0  0  0
  -13.0212   -0.7054  -19.1121 C   0  0  0  0  0  0  0  0  0  0  0  0
  -13.5137   -0.3064  -17.9067 C   0  0  0  0  0  0  0  0  0  0  0  0
  -13.5219   -0.8012  -16.6681 N   0  0  0  0  0  0  0  0  0  0  0  0
  -13.5284   -1.3161  -15.3923 C   0  0  1  0  0  0  0  0  0  0  0  0
  -14.7442   -2.1958  -15.1516 C   0  0  0  0  0  0  0  0  0  0  0  0
  -15.4290   -2.1825  -13.9556 C   0  0  0  0  0  0  0  0  0  0  0  0
  -16.6129   -2.9423  -13.7370 C   0  0  0  0  0  0  0  0  0  0  0  0
  -17.0611   -3.7205  -14.8108 C   0  0  0  0  0  0  0  0  0  0  0  0
  -16.3649   -3.7327  -16.0335 C   0  0  0  0  0  0  0  0  0  0  0  0
  -17.0439   -4.7588  -17.2737 Cl  0  0  0  0  0  0  0  0  0  0  0  0
  -15.2596   -2.9840  -16.1391 C   0  0  0  0  0  0  0  0  0  0  0  0
  -12.3863   -1.8535  -14.7036 C   0  0  0  0  0  0  0  0  0  0  0  0
  -11.2227   -1.1224  -14.6742 C   0  0  0  0  0  0  0  0  0  0  0  0
  -10.0434   -1.5911  -13.9943 C   0  0  0  0  0  0  0  0  0  0  0  0
  -10.2378   -2.8230  -13.4102 C   0  0  0  0  0  0  0  0  0  0  0  0
  -11.4353   -3.5636  -13.4401 C   0  0  0  0  0  0  0  0  0  0  0  0
  -12.4053   -3.0157  -14.0777 N   0  0  0  0  0  0  0  0  0  0  0  0
  -14.0374    1.0823  -17.8948 C   0  0  0  0  0  0  0  0  0  0  0  0
  -14.6662    1.4315  -16.6884 N   0  0  0  0  0  0  0  0  0  0  0  0
  -14.8459    2.7335  -16.0952 C   0  0  0  0  0  0  0  0  0  0  0  0
  -15.2554    3.7258  -16.6600 N   0  0  0  0  0  0  0  0  0  0  0  0
  -15.4343    5.0356  -16.0615 C   0  0  0  0  0  0  0  0  0  0  0  0
  -15.0078    4.8263  -14.7025 C   0  0  0  0  0  0  0  0  0  0  0  0
  -14.5836    3.8617  -14.0683 C   0  0  0  0  0  0  0  0  0  0  0  0
  -14.4203    2.5703  -14.6930 N   0  0  0  0  0  0  0  0  0  0  0  0
  -13.9990    1.8353  -18.9987 C   0  0  0  0  0  0  0  0  0  0  0  0
  1  2  1  0
  2  3  2  0
  2  4  2  0
  2  5  1  0
  5  6  2  0
  6  7  1  0
  7  8  2  0
  8  9  1  0
 10  9  1  6
 10 11  1  0
 11 12  2  0
 12 13  1  0
 13 14  2  0
 14 15  1  0
 15 16  1  0
 15 17  2  0
 10 18  1  0
 18 19  2  0
 19 20  1  0
 20 21  2  0
 21 22  1  0
 22 23  2  0
  8 24  1  0
 24 25  1  0
 25 26  1  0
 26 27  2  0
 27 28  1  0
 28 29  2  0
 29 30  1  0
 30 31  2  0
 24 32  2  0
 32  5  1  0
 17 11  1  0
 23 18  1  0
 31 26  1  0
M  END
>  <shape_align_shape_tanimoto>  (2) 
0.40783491179409714

>  <shape_align_color_tanimoto>  (2) 
0.10703572942164287

>  <metric>  (2) 
color

>  <metric_score>  (2) 
0.107

>  <template_pid>  (2) 
6TE6

>  <template_shape_score>  (2) 
0.408

>  <template_color_score>  (2) 
0.107

>  <template_combo_score>  (2) 
0.257

$$$$
6TE6_combo_pose
     RDKit          3D

 32 35  0  0  0  0  0  0  0  0999 V2000
  -16.4703    6.4801  -12.7816 C   0  0  0  0  0  0  0  0  0  0  0  0
  -16.3991    6.4470  -14.5641 S   0  0  0  0  0  0  0  0  0  0  0  0
  -15.5802    7.6262  -15.0366 O   0  0  0  0  0  0  0  0  0  0  0  0
  -17.8196    6.6136  -15.0559 O   0  0  0  0  0  0  0  0  0  0  0  0
  -15.7799    4.9479  -15.1483 C   0  0  0  0  0  0  0  0  0  0  0  0
  -16.6460    3.9520  -15.4735 C   0  0  0  0  0  0  0  0  0  0  0  0
  -16.1088    2.7623  -15.9095 C   0  0  0  0  0  0  0  0  0  0  0  0
  -14.7685    2.4949  -16.0442 C   0  0  0  0  0  0  0  0  0  0  0  0
  -14.1231    1.3568  -16.4098 N   0  0  0  0  0  0  0  0  0  0  0  0
  -13.4704    0.2058  -16.7794 C   0  0  1  0  0  0  0  0  0  0  0  0
  -13.8083   -1.0263  -15.9658 C   0  0  0  0  0  0  0  0  0  0  0  0
  -15.1065   -1.3742  -15.6656 C   0  0  0  0  0  0  0  0  0  0  0  0
  -15.3646   -2.5211  -14.9016 C   0  0  0  0  0  0  0  0  0  0  0  0
  -14.3568   -3.3295  -14.4302 C   0  0  0  0  0  0  0  0  0  0  0  0
  -13.0574   -2.9862  -14.7276 C   0  0  0  0  0  0  0  0  0  0  0  0
  -11.7630   -4.0148  -14.1287 Cl  0  0  0  0  0  0  0  0  0  0  0  0
  -12.8133   -1.8582  -15.4785 C   0  0  0  0  0  0  0  0  0  0  0  0
  -13.4909   -0.0972  -18.2466 C   0  0  0  0  0  0  0  0  0  0  0  0
  -14.5989   -0.0117  -19.0408 C   0  0  0  0  0  0  0  0  0  0  0  0
  -14.5681   -0.2962  -20.3909 C   0  0  0  0  0  0  0  0  0  0  0  0
  -13.3426   -0.6861  -20.9502 C   0  0  0  0  0  0  0  0  0  0  0  0
  -12.2202   -0.7722  -20.1440 C   0  0  0  0  0  0  0  0  0  0  0  0
  -12.3302   -0.4817  -18.8518 N   0  0  0  0  0  0  0  0  0  0  0  0
  -13.8970    3.5877  -15.6871 C   0  0  0  0  0  0  0  0  0  0  0  0
  -12.5046    3.4451  -15.8157 N   0  0  0  0  0  0  0  0  0  0  0  0
  -11.4992    4.3456  -15.4000 C   0  0  0  0  0  0  0  0  0  0  0  0
  -11.6800    5.4891  -14.7448 N   0  0  0  0  0  0  0  0  0  0  0  0
  -10.7128    6.3261  -14.3638 C   0  0  0  0  0  0  0  0  0  0  0  0
   -9.4152    5.9803  -14.6730 C   0  0  0  0  0  0  0  0  0  0  0  0
   -9.1605    4.8010  -15.3540 C   0  0  0  0  0  0  0  0  0  0  0  0
  -10.1928    4.0370  -15.6885 N   0  0  0  0  0  0  0  0  0  0  0  0
  -14.4273    4.7754  -15.2518 C   0  0  0  0  0  0  0  0  0  0  0  0
  1  2  1  0
  2  3  2  0
  2  4  2  0
  2  5  1  0
  5  6  2  0
  6  7  1  0
  7  8  2  0
  8  9  1  0
 10  9  1  6
 10 11  1  0
 11 12  2  0
 12 13  1  0
 13 14  2  0
 14 15  1  0
 15 16  1  0
 15 17  2  0
 10 18  1  0
 18 19  2  0
 19 20  1  0
 20 21  2  0
 21 22  1  0
 22 23  2  0
  8 24  1  0
 24 25  1  0
 25 26  1  0
 26 27  2  0
 27 28  1  0
 28 29  2  0
 29 30  1  0
 30 31  2  0
 24 32  2  0
 32  5  1  0
 17 11  1  0
 23 18  1  0
 31 26  1  0
M  END
>  <shape_align_shape_tanimoto>  (3) 
0.454801244114934

>  <shape_align_color_tanimoto>  (3) 
0.065464948137003168

>  <metric>  (3) 
combo

>  <metric_score>  (3) 
0.260

>  <template_pid>  (3) 
6TE6

>  <template_shape_score>  (3) 
0.455

>  <template_color_score>  (3) 
0.065

>  <template_combo_score>  (3) 
0.260

$$$$
