6HHH_shape_pose
     RDKit          3D

 41 46  0  0  0  0  0  0  0  0999 V2000
   17.2226   -2.6412   17.4690 C   0  0  0  0  0  0  0  0  0  0  0  0
   18.0457   -3.8128   16.9633 C   0  0  0  0  0  0  0  0  0  0  0  0
   18.5841   -3.5651   15.6132 C   0  0  0  0  0  0  0  0  0  0  0  0
   18.3583   -2.4777   14.9821 O   0  0  0  0  0  0  0  0  0  0  0  0
   19.3727   -4.5611   15.0010 N   0  0  0  0  0  0  0  0  0  0  0  0
   19.8787   -4.2966   13.7000 C   0  0  0  0  0  0  0  0  0  0  0  0
   19.1991   -4.6226   12.5421 C   0  0  0  0  0  0  0  0  0  0  0  0
   19.7287   -4.3451   11.2759 C   0  0  0  0  0  0  0  0  0  0  0  0
   20.9554   -3.7324   11.1369 C   0  0  0  0  0  0  0  0  0  0  0  0
   21.4704   -3.4531    9.8431 N   0  0  0  0  0  0  0  0  0  0  0  0
   20.6580   -3.6689    8.6630 C   0  0  0  0  0  0  0  0  0  0  0  0
   21.0244   -2.7556    7.5308 C   0  0  0  0  0  0  0  0  0  0  0  0
   21.7018   -1.5536    7.8732 N   0  0  0  0  0  0  0  0  0  0  0  0
   20.8533   -0.4124    8.1413 C   0  0  0  0  0  0  0  0  0  0  0  0
   19.5287   -0.6942    8.6556 C   0  0  0  0  0  0  0  0  0  0  0  0
   18.4449   -0.8615    7.8032 C   0  0  0  0  0  0  0  0  0  0  0  0
   17.1784   -1.1296    8.3014 C   0  0  0  0  0  0  0  0  0  0  0  0
   16.9645   -1.2373    9.6783 C   0  0  0  0  0  0  0  0  0  0  0  0
   15.6182   -1.5123   10.1076 C   0  0  0  0  0  0  0  0  0  0  0  0
   15.3151   -2.6767   10.7664 N   0  0  0  0  0  0  0  0  0  0  0  0
   14.0837   -2.9650   11.1776 C   0  0  0  0  0  0  0  0  0  0  0  0
   13.0885   -2.0482   10.9233 C   0  0  0  0  0  0  0  0  0  0  0  0
   13.3313   -0.8580   10.2641 C   0  0  0  0  0  0  0  0  0  0  0  0
   14.6327   -0.5936    9.8502 C   0  0  0  0  0  0  0  0  0  0  0  0
   14.9933    0.6231    9.1524 C   0  0  0  0  0  0  0  0  0  0  0  0
   15.8900    1.4703    9.8182 C   0  0  0  0  0  0  0  0  0  0  0  0
   16.3005    2.6514    9.2387 C   0  0  0  0  0  0  0  0  0  0  0  0
   15.8213    3.0054    7.9832 C   0  0  0  0  0  0  0  0  0  0  0  0
   14.9319    2.1637    7.3244 C   0  0  0  0  0  0  0  0  0  0  0  0
   14.5142    0.9701    7.9054 C   0  0  0  0  0  0  0  0  0  0  0  0
   11.7445   -2.4012   11.3919 C   0  0  0  0  0  0  0  0  0  0  0  0
   10.8110   -1.5821   11.1746 O   0  0  0  0  0  0  0  0  0  0  0  0
   11.4938   -3.6237   12.0695 N   0  0  0  0  0  0  0  0  0  0  0  0
   12.4498   -4.4513   12.2864 C   0  0  0  0  0  0  0  0  0  0  0  0
   13.8584   -4.2497   11.8807 C   0  0  0  0  0  0  0  0  0  0  0  0
   18.0402   -1.0715   10.5315 C   0  0  0  0  0  0  0  0  0  0  0  0
   19.3242   -0.8004   10.0377 C   0  0  0  0  0  0  0  0  0  0  0  0
   22.7653   -1.6773    8.8376 C   0  0  0  0  0  0  0  0  0  0  0  0
   22.8100   -2.9508    9.6026 C   0  0  0  0  0  0  0  0  0  0  0  0
   21.6228   -3.4126   12.3008 C   0  0  0  0  0  0  0  0  0  0  0  0
   21.0971   -3.6881   13.5616 C   0  0  0  0  0  0  0  0  0  0  0  0
  1  2  1  0
  2  3  1  0
  3  4  2  0
  3  5  1  0
  5  6  1  0
  6  7  2  0
  7  8  1  0
  8  9  2  0
  9 10  1  0
 10 11  1  0
 11 12  1  0
 12 13  1  0
 13 14  1  0
 14 15  1  0
 15 16  2  0
 16 17  1  0
 17 18  2  0
 18 19  1  0
 19 20  2  0
 20 21  1  0
 21 22  2  0
 22 23  1  0
 23 24  2  0
 24 25  1  0
 25 26  2  0
 26 27  1  0
 27 28  2  0
 28 29  1  0
 29 30  2  0
 22 31  1  0
 31 32  2  0
 31 33  1  0
 33 34  2  0
 34 35  1  0
 18 36  1  0
 36 37  2  0
 13 38  1  0
 38 39  1  0
  9 40  1  0
 40 41  2  0
 41  6  1  0
 39 10  1  0
 37 15  1  0
 24 19  1  0
 30 25  1  0
 35 21  1  0
M  CHG  1  13   1
M  END
>  <shape_align_shape_tanimoto>  (1) 
0.46965617234289136

>  <shape_align_color_tanimoto>  (1) 
0.085895605176533912

>  <metric>  (1) 
shape

>  <metric_score>  (1) 
0.470

>  <template_pid>  (1) 
6HHH

>  <template_shape_score>  (1) 
0.470

>  <template_color_score>  (1) 
0.086

>  <template_combo_score>  (1) 
0.278

$$$$
6HHH_color_pose
     RDKit          3D

 41 46  0  0  0  0  0  0  0  0999 V2000
   12.8061   -4.2779    4.3853 C   0  0  0  0  0  0  0  0  0  0  0  0
   13.7446   -5.3331    3.7841 C   0  0  0  0  0  0  0  0  0  0  0  0
   15.1083   -5.1200    4.3835 C   0  0  0  0  0  0  0  0  0  0  0  0
   15.2636   -4.1775    5.2283 O   0  0  0  0  0  0  0  0  0  0  0  0
   16.2488   -5.9545    4.0282 N   0  0  0  0  0  0  0  0  0  0  0  0
   17.4893   -5.6273    4.6862 C   0  0  0  0  0  0  0  0  0  0  0  0
   17.8198   -6.2182    5.8908 C   0  0  0  0  0  0  0  0  0  0  0  0
   19.0348   -5.8567    6.4809 C   0  0  0  0  0  0  0  0  0  0  0  0
   19.9205   -4.9419    5.9247 C   0  0  0  0  0  0  0  0  0  0  0  0
   21.1625   -4.5558    6.5107 N   0  0  0  0  0  0  0  0  0  0  0  0
   21.6970   -5.0962    7.7773 C   0  0  0  0  0  0  0  0  0  0  0  0
   21.7147   -3.9016    8.7328 C   0  0  0  0  0  0  0  0  0  0  0  0
   22.5933   -2.8795    8.2402 N   0  0  0  0  0  0  0  0  0  0  0  0
   22.0412   -1.5237    8.3311 C   0  0  0  0  0  0  0  0  0  0  0  0
   20.6058   -1.4636    8.7203 C   0  0  0  0  0  0  0  0  0  0  0  0
   19.5608   -1.4741    7.7747 C   0  0  0  0  0  0  0  0  0  0  0  0
   18.2136   -1.4208    8.1467 C   0  0  0  0  0  0  0  0  0  0  0  0
   17.8686   -1.3541    9.5009 C   0  0  0  0  0  0  0  0  0  0  0  0
   16.4300   -1.3023    9.8322 C   0  0  0  0  0  0  0  0  0  0  0  0
   15.8807   -2.3161   10.5708 N   0  0  0  0  0  0  0  0  0  0  0  0
   14.5848   -2.3792   10.9332 C   0  0  0  0  0  0  0  0  0  0  0  0
   13.7277   -1.3516   10.5392 C   0  0  0  0  0  0  0  0  0  0  0  0
   14.2371   -0.2942    9.7848 C   0  0  0  0  0  0  0  0  0  0  0  0
   15.5943   -0.2560    9.4217 C   0  0  0  0  0  0  0  0  0  0  0  0
   16.1735    0.8448    8.6234 C   0  0  0  0  0  0  0  0  0  0  0  0
   15.7183    1.1114    7.3099 C   0  0  0  0  0  0  0  0  0  0  0  0
   16.2765    2.1649    6.5544 C   0  0  0  0  0  0  0  0  0  0  0  0
   17.2904    2.9650    7.0905 C   0  0  0  0  0  0  0  0  0  0  0  0
   17.7475    2.7084    8.3903 C   0  0  0  0  0  0  0  0  0  0  0  0
   17.1876    1.6626    9.1295 C   0  0  0  0  0  0  0  0  0  0  0  0
   12.3197   -1.4021   10.9220 C   0  0  0  0  0  0  0  0  0  0  0  0
   11.4988   -0.4900   10.5873 O   0  0  0  0  0  0  0  0  0  0  0  0
   11.8822   -2.5421   11.7070 N   0  0  0  0  0  0  0  0  0  0  0  0
   12.6829   -3.5046   12.0765 C   0  0  0  0  0  0  0  0  0  0  0  0
   14.1388   -3.5644   11.7471 C   0  0  0  0  0  0  0  0  0  0  0  0
   18.8791   -1.3415   10.4690 C   0  0  0  0  0  0  0  0  0  0  0  0
   20.2252   -1.3953   10.0847 C   0  0  0  0  0  0  0  0  0  0  0  0
   23.1117   -3.1320    6.9161 C   0  0  0  0  0  0  0  0  0  0  0  0
   22.0549   -3.5338    5.8779 C   0  0  0  0  0  0  0  0  0  0  0  0
   19.5594   -4.3620    4.7076 C   0  0  0  0  0  0  0  0  0  0  0  0
   18.3375   -4.7000    4.0755 C   0  0  0  0  0  0  0  0  0  0  0  0
  1  2  1  0
  2  3  1  0
  3  4  2  0
  3  5  1  0
  5  6  1  0
  6  7  2  0
  7  8  1  0
  8  9  2  0
  9 10  1  0
 10 11  1  0
 11 12  1  0
 12 13  1  0
 13 14  1  0
 14 15  1  0
 15 16  2  0
 16 17  1  0
 17 18  2  0
 18 19  1  0
 19 20  2  0
 20 21  1  0
 21 22  2  0
 22 23  1  0
 23 24  2  0
 24 25  1  0
 25 26  2  0
 26 27  1  0
 27 28  2  0
 28 29  1  0
 29 30  2  0
 22 31  1  0
 31 32  2  0
 31 33  1  0
 33 34  2  0
 34 35  1  0
 18 36  1  0
 36 37  2  0
 13 38  1  0
 38 39  1  0
  9 40  1  0
 40 41  2  0
 41  6  1  0
 39 10  1  0
 37 15  1  0
 24 19  1  0
 30 25  1  0
 35 21  1  0
M  CHG  1  13   1
M  END
>  <shape_align_shape_tanimoto>  (2) 
0.42428161740983111

>  <shape_align_color_tanimoto>  (2) 
0.10774531997018716

>  <metric>  (2) 
color

>  <metric_score>  (2) 
0.108

>  <template_pid>  (2) 
6HHH

>  <template_shape_score>  (2) 
0.424

>  <template_color_score>  (2) 
0.108

>  <template_combo_score>  (2) 
0.266

$$$$
6HHH_combo_pose
     RDKit          3D

 41 46  0  0  0  0  0  0  0  0999 V2000
   18.7381   -7.8816   17.1813 C   0  0  0  0  0  0  0  0  0  0  0  0
   18.1483   -6.7180   16.4249 C   0  0  0  0  0  0  0  0  0  0  0  0
   19.0166   -6.3703   15.2694 C   0  0  0  0  0  0  0  0  0  0  0  0
   20.0681   -7.0252   15.0293 O   0  0  0  0  0  0  0  0  0  0  0  0
   18.6217   -5.2875   14.4579 N   0  0  0  0  0  0  0  0  0  0  0  0
   19.3278   -4.8221   13.3192 C   0  0  0  0  0  0  0  0  0  0  0  0
   20.3092   -3.8624   13.4353 C   0  0  0  0  0  0  0  0  0  0  0  0
   20.9932   -3.3958   12.3064 C   0  0  0  0  0  0  0  0  0  0  0  0
   20.7202   -3.8682   11.0437 C   0  0  0  0  0  0  0  0  0  0  0  0
   21.4063   -3.3966    9.8710 N   0  0  0  0  0  0  0  0  0  0  0  0
   22.5862   -2.5675   10.0010 C   0  0  0  0  0  0  0  0  0  0  0  0
   22.9575   -1.8753    8.7397 C   0  0  0  0  0  0  0  0  0  0  0  0
   21.8691   -1.6706    7.8173 N   0  0  0  0  0  0  0  0  0  0  0  0
   21.0608   -0.5191    8.0828 C   0  0  0  0  0  0  0  0  0  0  0  0
   19.7271   -0.7423    8.6125 C   0  0  0  0  0  0  0  0  0  0  0  0
   18.6475   -0.8884    7.7334 C   0  0  0  0  0  0  0  0  0  0  0  0
   17.3584   -1.1054    8.2073 C   0  0  0  0  0  0  0  0  0  0  0  0
   17.0829   -1.1865    9.5566 C   0  0  0  0  0  0  0  0  0  0  0  0
   15.7131   -1.4155   10.0029 C   0  0  0  0  0  0  0  0  0  0  0  0
   15.4457   -2.5778   10.6262 N   0  0  0  0  0  0  0  0  0  0  0  0
   14.1982   -2.8552   11.0621 C   0  0  0  0  0  0  0  0  0  0  0  0
   13.2300   -1.9097   10.8426 C   0  0  0  0  0  0  0  0  0  0  0  0
   13.4572   -0.7032   10.2077 C   0  0  0  0  0  0  0  0  0  0  0  0
   14.7522   -0.4538    9.7738 C   0  0  0  0  0  0  0  0  0  0  0  0
   15.0393    0.7962    9.1020 C   0  0  0  0  0  0  0  0  0  0  0  0
   15.9429    1.6568    9.7127 C   0  0  0  0  0  0  0  0  0  0  0  0
   16.2707    2.8782    9.1260 C   0  0  0  0  0  0  0  0  0  0  0  0
   15.6731    3.2069    7.9242 C   0  0  0  0  0  0  0  0  0  0  0  0
   14.7702    2.3522    7.3092 C   0  0  0  0  0  0  0  0  0  0  0  0
   14.4543    1.1479    7.8987 C   0  0  0  0  0  0  0  0  0  0  0  0
   11.8776   -2.1760   11.3013 C   0  0  0  0  0  0  0  0  0  0  0  0
   10.9144   -1.4048   11.1652 O   0  0  0  0  0  0  0  0  0  0  0  0
   11.6558   -3.4227   11.9560 N   0  0  0  0  0  0  0  0  0  0  0  0
   12.5934   -4.2821   12.1398 C   0  0  0  0  0  0  0  0  0  0  0  0
   13.9867   -4.1522   11.7347 C   0  0  0  0  0  0  0  0  0  0  0  0
   18.1445   -1.0423   10.4339 C   0  0  0  0  0  0  0  0  0  0  0  0
   19.4152   -0.8284    9.9532 C   0  0  0  0  0  0  0  0  0  0  0  0
   21.1831   -2.8700    7.4693 C   0  0  0  0  0  0  0  0  0  0  0  0
   20.8348   -3.7919    8.6029 C   0  0  0  0  0  0  0  0  0  0  0  0
   19.7235   -4.8386   10.9595 C   0  0  0  0  0  0  0  0  0  0  0  0
   19.0470   -5.3015   12.0682 C   0  0  0  0  0  0  0  0  0  0  0  0
  1  2  1  0
  2  3  1  0
  3  4  2  0
  3  5  1  0
  5  6  1  0
  6  7  2  0
  7  8  1  0
  8  9  2  0
  9 10  1  0
 10 11  1  0
 11 12  1  0
 12 13  1  0
 13 14  1  0
 14 15  1  0
 15 16  2  0
 16 17  1  0
 17 18  2  0
 18 19  1  0
 19 20  2  0
 20 21  1  0
 21 22  2  0
 22 23  1  0
 23 24  2  0
 24 25  1  0
 25 26  2  0
 26 27  1  0
 27 28  2  0
 28 29  1  0
 29 30  2  0
 22 31  1  0
 31 32  2  0
 31 33  1  0
 33 34  2  0
 34 35  1  0
 18 36  1  0
 36 37  2  0
 13 38  1  0
 38 39  1  0
  9 40  1  0
 40 41  2  0
 41  6  1  0
 39 10  1  0
 37 15  1  0
 24 19  1  0
 30 25  1  0
 35 21  1  0
M  CHG  1  13   1
M  END
>  <shape_align_shape_tanimoto>  (3) 
0.46870649334842529

>  <shape_align_color_tanimoto>  (3) 
0.095871033509183939

>  <metric>  (3) 
combo

>  <metric_score>  (3) 
0.282

>  <template_pid>  (3) 
6HHH

>  <template_shape_score>  (3) 
0.469

>  <template_color_score>  (3) 
0.096

>  <template_combo_score>  (3) 
0.282

$$$$
