4WVL_shape_pose
     RDKit          3D

 47 50  0  0  0  0  0  0  0  0999 V2000
    0.9018   12.9594    4.0930 C   0  0  0  0  0  0  0  0  0  0  0  0
    0.4910   12.4272    2.7521 C   0  0  0  0  0  0  0  0  0  0  0  0
    0.4663   13.1731    1.7506 O   0  0  0  0  0  0  0  0  0  0  0  0
    0.1320   11.0581    2.6500 N   0  0  0  0  0  0  0  0  0  0  0  0
   -0.2721   10.4977    1.3744 C   0  0  0  0  0  0  0  0  0  0  0  0
    0.8268   10.6230    0.3237 C   0  0  0  0  0  0  0  0  0  0  0  0
    2.0707    9.9255    0.7175 C   0  0  0  0  0  0  0  0  0  0  0  0
    3.2297    9.9840   -0.2088 C   0  0  0  0  0  0  0  0  0  0  0  0
    3.0327    9.4561   -1.5254 N   0  0  0  0  0  0  0  0  0  0  0  0
    2.3534   10.0729   -2.5940 C   0  0  0  0  0  0  0  0  0  0  0  0
    1.8105   11.2990   -2.5626 N   0  0  0  0  0  0  0  0  0  0  0  0
    1.1943   11.8707   -3.6101 C   0  0  0  0  0  0  0  0  0  0  0  0
    1.0961   11.2070   -4.7742 N   0  0  0  0  0  0  0  0  0  0  0  0
    1.6097    9.9800   -4.8924 C   0  0  0  0  0  0  0  0  0  0  0  0
    2.2332    9.4064   -3.8262 C   0  0  0  0  0  0  0  0  0  0  0  0
    2.6553    8.1864   -4.1993 N   0  0  0  0  0  0  0  0  0  0  0  0
    2.2915    8.0160   -5.4867 C   0  0  0  0  0  0  0  0  0  0  0  0
    1.6456    9.1119   -5.9308 N   0  0  0  0  0  0  0  0  0  0  0  0
    1.0794    9.3971   -7.2123 C   0  0  2  0  0  0  0  0  0  0  0  0
   -0.2592    9.8198   -7.1367 O   0  0  0  0  0  0  0  0  0  0  0  0
   -0.5091   10.0212   -8.5190 C   0  0  2  0  0  0  0  0  0  0  0  0
   -1.9539   10.2914   -8.7715 C   0  0  0  0  0  0  0  0  0  0  0  0
   -2.1949   10.5147  -10.2225 N   0  0  1  0  0  0  0  0  0  0  0  0
   -3.5258   10.1131  -10.4961 C   0  0  0  0  0  0  0  0  0  0  0  0
   -3.7886    9.0888  -11.5331 C   0  0  0  0  0  0  0  0  0  0  0  0
   -3.3918    9.3720  -12.9281 C   0  0  0  0  0  0  0  0  0  0  0  0
   -2.0012    9.5472  -13.2150 N   0  0  0  0  0  0  0  0  0  0  0  0
   -1.0399    8.4887  -13.0172 C   0  0  0  0  0  0  0  0  0  0  0  0
   -1.4995    7.4125  -12.5836 O   0  0  0  0  0  0  0  0  0  0  0  0
    0.3277    8.7007  -13.3093 N   0  0  0  0  0  0  0  0  0  0  0  0
    1.3627    7.7639  -13.1697 C   0  0  0  0  0  0  0  0  0  0  0  0
    1.2190    6.4614  -12.7615 C   0  0  0  0  0  0  0  0  0  0  0  0
    2.2981    5.5843  -12.6380 C   0  0  0  0  0  0  0  0  0  0  0  0
    3.5724    6.0280  -12.9346 C   0  0  0  0  0  0  0  0  0  0  0  0
    4.7212    5.0907  -12.8066 C   0  0  0  0  0  0  0  0  0  0  0  0
    5.3100    5.0888  -11.4092 C   0  0  0  0  0  0  0  0  0  0  0  0
    5.8523    5.5054  -13.7295 C   0  0  0  0  0  0  0  0  0  0  0  0
    4.3401    3.6798  -13.1694 C   0  0  0  0  0  0  0  0  0  0  0  0
    3.7135    7.3207  -13.3393 C   0  0  0  0  0  0  0  0  0  0  0  0
    2.6502    8.1784  -13.4592 C   0  0  0  0  0  0  0  0  0  0  0  0
   -1.9364   11.9273  -10.4315 C   0  0  0  0  0  0  0  0  0  0  0  0
   -3.0334   12.6478  -11.1728 C   0  0  0  0  0  0  0  0  0  0  0  0
   -0.6529   12.0988  -11.2096 C   0  0  0  0  0  0  0  0  0  0  0  0
   -0.0045    8.7427   -9.1690 C   0  0  1  0  0  0  0  0  0  0  0  0
    0.8340    9.0768  -10.2364 O   0  0  0  0  0  0  0  0  0  0  0  0
    0.9366    8.1893   -8.0893 C   0  0  1  0  0  0  0  0  0  0  0  0
    2.1872    7.8680   -8.6054 O   0  0  0  0  0  0  0  0  0  0  0  0
  1  2  1  0
  2  3  2  0
  2  4  1  0
  4  5  1  0
  5  6  1  0
  6  7  1  0
  7  8  1  0
  8  9  1  0
  9 10  1  0
 10 11  2  0
 11 12  1  0
 12 13  2  0
 13 14  1  0
 14 15  2  0
 15 16  1  0
 16 17  2  0
 17 18  1  0
 19 18  1  1
 19 20  1  0
 20 21  1  0
 21 22  1  1
 23 22  1  1
 23 24  1  0
 24 25  1  0
 25 26  1  0
 26 27  1  0
 27 28  1  0
 28 29  2  0
 28 30  1  0
 30 31  1  0
 31 32  2  0
 32 33  1  0
 33 34  2  0
 34 35  1  0
 35 36  1  0
 35 37  1  0
 35 38  1  0
 34 39  1  0
 39 40  2  0
 23 41  1  0
 41 42  1  0
 41 43  1  0
 21 44  1  0
 44 45  1  6
 44 46  1  0
 46 47  1  6
 15 10  1  0
 46 19  1  0
 18 14  1  0
 40 31  1  0
M  CHG  1  23   1
M  END
>  <shape_align_shape_tanimoto>  (1) 
0.46972652083034688

>  <shape_align_color_tanimoto>  (1) 
0.00066281579394167789

>  <metric>  (1) 
shape

>  <metric_score>  (1) 
0.470

>  <template_pid>  (1) 
4WVL

>  <template_shape_score>  (1) 
0.470

>  <template_color_score>  (1) 
0.001

>  <template_combo_score>  (1) 
0.235

$$$$
4WVL_color_pose
     RDKit          3D

 47 50  0  0  0  0  0  0  0  0999 V2000
    5.0623    5.0017  -11.5626 C   0  0  0  0  0  0  0  0  0  0  0  0
    5.2098    5.4799  -12.9651 C   0  0  0  0  0  0  0  0  0  0  0  0
    5.7020    4.6817  -13.8018 O   0  0  0  0  0  0  0  0  0  0  0  0
    4.7970    6.8127  -13.3276 N   0  0  0  0  0  0  0  0  0  0  0  0
    4.9549    7.2365  -14.6881 C   0  0  0  0  0  0  0  0  0  0  0  0
    4.3036    6.4764  -15.7530 C   0  0  0  0  0  0  0  0  0  0  0  0
    2.8554    6.4133  -15.8611 C   0  0  0  0  0  0  0  0  0  0  0  0
    2.0589    5.9129  -14.7274 C   0  0  0  0  0  0  0  0  0  0  0  0
    2.0594    6.7959  -13.6167 N   0  0  0  0  0  0  0  0  0  0  0  0
    1.5473    6.3410  -12.3673 C   0  0  0  0  0  0  0  0  0  0  0  0
    1.0642    5.0745  -12.2427 N   0  0  0  0  0  0  0  0  0  0  0  0
    0.5853    4.6553  -11.0654 C   0  0  0  0  0  0  0  0  0  0  0  0
    0.5594    5.4575   -9.9626 N   0  0  0  0  0  0  0  0  0  0  0  0
    1.0262    6.7265  -10.0259 C   0  0  0  0  0  0  0  0  0  0  0  0
    1.5146    7.1467  -11.2360 C   0  0  0  0  0  0  0  0  0  0  0  0
    1.9145    8.4285  -11.0437 N   0  0  0  0  0  0  0  0  0  0  0  0
    1.6765    8.7780   -9.7540 C   0  0  0  0  0  0  0  0  0  0  0  0
    1.1291    7.7362   -9.1181 N   0  0  0  0  0  0  0  0  0  0  0  0
    0.6916    7.5795   -7.7538 C   0  0  2  0  0  0  0  0  0  0  0  0
    0.3482    8.8070   -7.1482 O   0  0  0  0  0  0  0  0  0  0  0  0
    0.1638    8.4443   -5.8309 C   0  0  2  0  0  0  0  0  0  0  0  0
    0.0106    9.5828   -4.8705 C   0  0  0  0  0  0  0  0  0  0  0  0
    1.1188   10.4786   -4.8065 N   0  0  1  0  0  0  0  0  0  0  0  0
    0.8498   11.5802   -5.7215 C   0  0  0  0  0  0  0  0  0  0  0  0
    1.9579   12.5032   -5.9355 C   0  0  0  0  0  0  0  0  0  0  0  0
    1.7413   13.6906   -6.8045 C   0  0  0  0  0  0  0  0  0  0  0  0
    1.3334   13.5136   -8.1613 N   0  0  0  0  0  0  0  0  0  0  0  0
    0.1379   13.0250   -8.6676 C   0  0  0  0  0  0  0  0  0  0  0  0
   -0.8663   12.6644   -8.0044 O   0  0  0  0  0  0  0  0  0  0  0  0
   -0.0139   12.9005  -10.0991 N   0  0  0  0  0  0  0  0  0  0  0  0
   -1.2833   12.3849  -10.5644 C   0  0  0  0  0  0  0  0  0  0  0  0
   -1.4502   11.0251  -10.7384 C   0  0  0  0  0  0  0  0  0  0  0  0
   -2.6399   10.4797  -11.1794 C   0  0  0  0  0  0  0  0  0  0  0  0
   -3.6748   11.3544  -11.4453 C   0  0  0  0  0  0  0  0  0  0  0  0
   -4.9532   10.7236  -11.9241 C   0  0  0  0  0  0  0  0  0  0  0  0
   -5.9874   11.7720  -12.1728 C   0  0  0  0  0  0  0  0  0  0  0  0
   -5.4768    9.7847  -10.8582 C   0  0  0  0  0  0  0  0  0  0  0  0
   -4.6599    9.8845  -13.1445 C   0  0  0  0  0  0  0  0  0  0  0  0
   -3.5566   12.7239  -11.2865 C   0  0  0  0  0  0  0  0  0  0  0  0
   -2.3397   13.2530  -10.8379 C   0  0  0  0  0  0  0  0  0  0  0  0
    1.4601   10.8888   -3.4913 C   0  0  0  0  0  0  0  0  0  0  0  0
    2.9838   11.0187   -3.3510 C   0  0  0  0  0  0  0  0  0  0  0  0
    1.0410    9.8561   -2.4681 C   0  0  0  0  0  0  0  0  0  0  0  0
    1.1864    7.4279   -5.4774 C   0  0  1  0  0  0  0  0  0  0  0  0
    0.6412    6.2135   -5.0426 O   0  0  0  0  0  0  0  0  0  0  0  0
    1.8105    7.1254   -6.8412 C   0  0  1  0  0  0  0  0  0  0  0  0
    2.0988    5.7705   -6.9521 O   0  0  0  0  0  0  0  0  0  0  0  0
  1  2  1  0
  2  3  2  0
  2  4  1  0
  4  5  1  0
  5  6  1  0
  6  7  1  0
  7  8  1  0
  8  9  1  0
  9 10  1  0
 10 11  2  0
 11 12  1  0
 12 13  2  0
 13 14  1  0
 14 15  2  0
 15 16  1  0
 16 17  2  0
 17 18  1  0
 19 18  1  6
 19 20  1  0
 20 21  1  0
 21 22  1  1
 23 22  1  1
 23 24  1  0
 24 25  1  0
 25 26  1  0
 26 27  1  0
 27 28  1  0
 28 29  2  0
 28 30  1  0
 30 31  1  0
 31 32  2  0
 32 33  1  0
 33 34  2  0
 34 35  1  0
 35 36  1  0
 35 37  1  0
 35 38  1  0
 34 39  1  0
 39 40  2  0
 23 41  1  0
 41 42  1  0
 41 43  1  0
 21 44  1  0
 44 45  1  6
 44 46  1  0
 46 47  1  1
 15 10  1  0
 46 19  1  0
 18 14  1  0
 40 31  1  0
M  CHG  1  23   1
M  END
>  <shape_align_shape_tanimoto>  (2) 
0.46528018985868491

>  <shape_align_color_tanimoto>  (2) 
0.083186667013684393

>  <metric>  (2) 
color

>  <metric_score>  (2) 
0.083

>  <template_pid>  (2) 
4WVL

>  <template_shape_score>  (2) 
0.465

>  <template_color_score>  (2) 
0.083

>  <template_combo_score>  (2) 
0.274

$$$$
4WVL_combo_pose
     RDKit          3D

 47 50  0  0  0  0  0  0  0  0999 V2000
    5.0623    5.0017  -11.5626 C   0  0  0  0  0  0  0  0  0  0  0  0
    5.2098    5.4799  -12.9651 C   0  0  0  0  0  0  0  0  0  0  0  0
    5.7020    4.6817  -13.8018 O   0  0  0  0  0  0  0  0  0  0  0  0
    4.7970    6.8127  -13.3276 N   0  0  0  0  0  0  0  0  0  0  0  0
    4.9549    7.2365  -14.6881 C   0  0  0  0  0  0  0  0  0  0  0  0
    4.3036    6.4764  -15.7530 C   0  0  0  0  0  0  0  0  0  0  0  0
    2.8554    6.4133  -15.8611 C   0  0  0  0  0  0  0  0  0  0  0  0
    2.0589    5.9129  -14.7274 C   0  0  0  0  0  0  0  0  0  0  0  0
    2.0594    6.7959  -13.6167 N   0  0  0  0  0  0  0  0  0  0  0  0
    1.5473    6.3410  -12.3673 C   0  0  0  0  0  0  0  0  0  0  0  0
    1.0642    5.0745  -12.2427 N   0  0  0  0  0  0  0  0  0  0  0  0
    0.5853    4.6553  -11.0654 C   0  0  0  0  0  0  0  0  0  0  0  0
    0.5594    5.4575   -9.9626 N   0  0  0  0  0  0  0  0  0  0  0  0
    1.0262    6.7265  -10.0259 C   0  0  0  0  0  0  0  0  0  0  0  0
    1.5146    7.1467  -11.2360 C   0  0  0  0  0  0  0  0  0  0  0  0
    1.9145    8.4285  -11.0437 N   0  0  0  0  0  0  0  0  0  0  0  0
    1.6765    8.7780   -9.7540 C   0  0  0  0  0  0  0  0  0  0  0  0
    1.1291    7.7362   -9.1181 N   0  0  0  0  0  0  0  0  0  0  0  0
    0.6916    7.5795   -7.7538 C   0  0  2  0  0  0  0  0  0  0  0  0
    0.3482    8.8070   -7.1482 O   0  0  0  0  0  0  0  0  0  0  0  0
    0.1638    8.4443   -5.8309 C   0  0  2  0  0  0  0  0  0  0  0  0
    0.0106    9.5828   -4.8705 C   0  0  0  0  0  0  0  0  0  0  0  0
    1.1188   10.4786   -4.8065 N   0  0  1  0  0  0  0  0  0  0  0  0
    0.8498   11.5802   -5.7215 C   0  0  0  0  0  0  0  0  0  0  0  0
    1.9579   12.5032   -5.9355 C   0  0  0  0  0  0  0  0  0  0  0  0
    1.7413   13.6906   -6.8045 C   0  0  0  0  0  0  0  0  0  0  0  0
    1.3334   13.5136   -8.1613 N   0  0  0  0  0  0  0  0  0  0  0  0
    0.1379   13.0250   -8.6676 C   0  0  0  0  0  0  0  0  0  0  0  0
   -0.8663   12.6644   -8.0044 O   0  0  0  0  0  0  0  0  0  0  0  0
   -0.0139   12.9005  -10.0991 N   0  0  0  0  0  0  0  0  0  0  0  0
   -1.2833   12.3849  -10.5644 C   0  0  0  0  0  0  0  0  0  0  0  0
   -1.4502   11.0251  -10.7384 C   0  0  0  0  0  0  0  0  0  0  0  0
   -2.6399   10.4797  -11.1794 C   0  0  0  0  0  0  0  0  0  0  0  0
   -3.6748   11.3544  -11.4453 C   0  0  0  0  0  0  0  0  0  0  0  0
   -4.9532   10.7236  -11.9241 C   0  0  0  0  0  0  0  0  0  0  0  0
   -5.9874   11.7720  -12.1728 C   0  0  0  0  0  0  0  0  0  0  0  0
   -5.4768    9.7847  -10.8582 C   0  0  0  0  0  0  0  0  0  0  0  0
   -4.6599    9.8845  -13.1445 C   0  0  0  0  0  0  0  0  0  0  0  0
   -3.5566   12.7239  -11.2865 C   0  0  0  0  0  0  0  0  0  0  0  0
   -2.3397   13.2530  -10.8379 C   0  0  0  0  0  0  0  0  0  0  0  0
    1.4601   10.8888   -3.4913 C   0  0  0  0  0  0  0  0  0  0  0  0
    2.9838   11.0187   -3.3510 C   0  0  0  0  0  0  0  0  0  0  0  0
    1.0410    9.8561   -2.4681 C   0  0  0  0  0  0  0  0  0  0  0  0
    1.1864    7.4279   -5.4774 C   0  0  1  0  0  0  0  0  0  0  0  0
    0.6412    6.2135   -5.0426 O   0  0  0  0  0  0  0  0  0  0  0  0
    1.8105    7.1254   -6.8412 C   0  0  1  0  0  0  0  0  0  0  0  0
    2.0988    5.7705   -6.9521 O   0  0  0  0  0  0  0  0  0  0  0  0
  1  2  1  0
  2  3  2  0
  2  4  1  0
  4  5  1  0
  5  6  1  0
  6  7  1  0
  7  8  1  0
  8  9  1  0
  9 10  1  0
 10 11  2  0
 11 12  1  0
 12 13  2  0
 13 14  1  0
 14 15  2  0
 15 16  1  0
 16 17  2  0
 17 18  1  0
 19 18  1  6
 19 20  1  0
 20 21  1  0
 21 22  1  1
 23 22  1  1
 23 24  1  0
 24 25  1  0
 25 26  1  0
 26 27  1  0
 27 28  1  0
 28 29  2  0
 28 30  1  0
 30 31  1  0
 31 32  2  0
 32 33  1  0
 33 34  2  0
 34 35  1  0
 35 36  1  0
 35 37  1  0
 35 38  1  0
 34 39  1  0
 39 40  2  0
 23 41  1  0
 41 42  1  0
 41 43  1  0
 21 44  1  0
 44 45  1  6
 44 46  1  0
 46 47  1  1
 15 10  1  0
 46 19  1  0
 18 14  1  0
 40 31  1  0
M  CHG  1  23   1
M  END
>  <shape_align_shape_tanimoto>  (3) 
0.46528018985868491

>  <shape_align_color_tanimoto>  (3) 
0.083186667013684393

>  <metric>  (3) 
combo

>  <metric_score>  (3) 
0.274

>  <template_pid>  (3) 
4WVL

>  <template_shape_score>  (3) 
0.465

>  <template_color_score>  (3) 
0.083

>  <template_combo_score>  (3) 
0.274

$$$$
