1SQC_shape_pose
     RDKit          3D

 16 15  0  0  0  0  0  0  0  0999 V2000
  -18.3239   39.6256  -33.2525 C   0  0  0  0  0  0  0  0  0  0  0  0
  -16.9365   39.5112  -32.6688 C   0  0  0  0  0  0  0  0  0  0  0  0
  -16.2193   38.2690  -33.2220 C   0  0  0  0  0  0  0  0  0  0  0  0
  -16.0938   38.3389  -34.7006 C   0  0  0  0  0  0  0  0  0  0  0  0
  -15.4534   37.1692  -35.3408 C   0  0  0  0  0  0  0  0  0  0  0  0
  -14.0674   36.7907  -35.0748 C   0  0  0  0  0  0  0  0  0  0  0  0
  -13.6014   36.4297  -33.7264 C   0  0  0  0  0  0  0  0  0  0  0  0
  -14.3335   35.2963  -33.0744 C   0  0  0  0  0  0  0  0  0  0  0  0
  -13.8539   34.9437  -31.7182 C   0  0  0  0  0  0  0  0  0  0  0  0
  -13.9447   36.0530  -30.6988 C   0  0  0  0  0  0  0  0  0  0  0  0
  -13.4658   35.6603  -29.3699 C   0  0  0  0  0  0  0  0  0  0  0  0
  -14.0912   34.5669  -28.6242 C   0  0  0  0  0  0  0  0  0  0  0  0
  -15.4469   34.6496  -28.2393 N   0  0  0  0  0  0  0  0  0  0  0  0
  -16.3940   35.2221  -29.1231 C   0  0  0  0  0  0  0  0  0  0  0  0
  -15.9209   33.2800  -27.9471 C   0  0  0  0  0  0  0  0  0  0  0  0
  -15.6086   35.2957  -27.0325 O   0  0  0  0  0  0  0  0  0  0  0  0
  1  2  1  0
  2  3  1  0
  3  4  1  0
  4  5  1  0
  5  6  1  0
  6  7  1  0
  7  8  1  0
  8  9  1  0
  9 10  1  0
 10 11  1  0
 11 12  1  0
 12 13  1  0
 13 14  1  0
 13 15  1  0
 13 16  1  0
M  CHG  1  13   1
M  END
>  <shape_align_shape_tanimoto>  (1) 
0.7113185598248829

>  <shape_align_color_tanimoto>  (1) 
0.019483605034713917

>  <metric>  (1) 
shape

>  <metric_score>  (1) 
0.711

>  <template_pid>  (1) 
1SQC

>  <template_shape_score>  (1) 
0.711

>  <template_color_score>  (1) 
0.019

>  <template_combo_score>  (1) 
0.365

$$$$
1SQC_color_pose
     RDKit          3D

 16 15  0  0  0  0  0  0  0  0999 V2000
  -13.8491   35.4163  -38.4848 C   0  0  0  0  0  0  0  0  0  0  0  0
  -13.3087   36.7393  -37.9885 C   0  0  0  0  0  0  0  0  0  0  0  0
  -13.7101   36.8594  -36.5127 C   0  0  0  0  0  0  0  0  0  0  0  0
  -15.2183   36.8086  -36.5025 C   0  0  0  0  0  0  0  0  0  0  0  0
  -15.8200   36.9132  -35.1223 C   0  0  0  0  0  0  0  0  0  0  0  0
  -15.4769   38.1820  -34.3994 C   0  0  0  0  0  0  0  0  0  0  0  0
  -16.1256   38.1558  -33.0690 C   0  0  0  0  0  0  0  0  0  0  0  0
  -15.7200   37.0120  -32.1638 C   0  0  0  0  0  0  0  0  0  0  0  0
  -14.3152   36.9217  -31.8150 C   0  0  0  0  0  0  0  0  0  0  0  0
  -13.7054   35.8651  -31.0182 C   0  0  0  0  0  0  0  0  0  0  0  0
  -14.0656   35.5097  -29.6519 C   0  0  0  0  0  0  0  0  0  0  0  0
  -15.4322   34.9778  -29.4922 C   0  0  0  0  0  0  0  0  0  0  0  0
  -15.7533   34.6290  -28.1069 N   0  0  0  0  0  0  0  0  0  0  0  0
  -16.9158   33.7474  -28.2216 C   0  0  0  0  0  0  0  0  0  0  0  0
  -16.1490   35.7479  -27.3102 C   0  0  0  0  0  0  0  0  0  0  0  0
  -14.7678   33.9473  -27.5040 O   0  0  0  0  0  0  0  0  0  0  0  0
  1  2  1  0
  2  3  1  0
  3  4  1  0
  4  5  1  0
  5  6  1  0
  6  7  1  0
  7  8  1  0
  8  9  1  0
  9 10  1  0
 10 11  1  0
 11 12  1  0
 12 13  1  0
 13 14  1  0
 13 15  1  0
 13 16  1  0
M  CHG  1  13   1
M  END
>  <shape_align_shape_tanimoto>  (2) 
0.55537812553958488

>  <shape_align_color_tanimoto>  (2) 
0.088709586706737453

>  <metric>  (2) 
color

>  <metric_score>  (2) 
0.089

>  <template_pid>  (2) 
1SQC

>  <template_shape_score>  (2) 
0.555

>  <template_color_score>  (2) 
0.089

>  <template_combo_score>  (2) 
0.322

$$$$
1SQC_combo_pose
     RDKit          3D

 16 15  0  0  0  0  0  0  0  0999 V2000
  -18.3239   39.6256  -33.2525 C   0  0  0  0  0  0  0  0  0  0  0  0
  -16.9365   39.5112  -32.6688 C   0  0  0  0  0  0  0  0  0  0  0  0
  -16.2193   38.2690  -33.2220 C   0  0  0  0  0  0  0  0  0  0  0  0
  -16.0938   38.3389  -34.7006 C   0  0  0  0  0  0  0  0  0  0  0  0
  -15.4534   37.1692  -35.3408 C   0  0  0  0  0  0  0  0  0  0  0  0
  -14.0674   36.7907  -35.0748 C   0  0  0  0  0  0  0  0  0  0  0  0
  -13.6014   36.4297  -33.7264 C   0  0  0  0  0  0  0  0  0  0  0  0
  -14.3335   35.2963  -33.0744 C   0  0  0  0  0  0  0  0  0  0  0  0
  -13.8539   34.9437  -31.7182 C   0  0  0  0  0  0  0  0  0  0  0  0
  -13.9447   36.0530  -30.6988 C   0  0  0  0  0  0  0  0  0  0  0  0
  -13.4658   35.6603  -29.3699 C   0  0  0  0  0  0  0  0  0  0  0  0
  -14.0912   34.5669  -28.6242 C   0  0  0  0  0  0  0  0  0  0  0  0
  -15.4469   34.6496  -28.2393 N   0  0  0  0  0  0  0  0  0  0  0  0
  -16.3940   35.2221  -29.1231 C   0  0  0  0  0  0  0  0  0  0  0  0
  -15.9209   33.2800  -27.9471 C   0  0  0  0  0  0  0  0  0  0  0  0
  -15.6086   35.2957  -27.0325 O   0  0  0  0  0  0  0  0  0  0  0  0
  1  2  1  0
  2  3  1  0
  3  4  1  0
  4  5  1  0
  5  6  1  0
  6  7  1  0
  7  8  1  0
  8  9  1  0
  9 10  1  0
 10 11  1  0
 11 12  1  0
 12 13  1  0
 13 14  1  0
 13 15  1  0
 13 16  1  0
M  CHG  1  13   1
M  END
>  <shape_align_shape_tanimoto>  (3) 
0.7113185598248829

>  <shape_align_color_tanimoto>  (3) 
0.019483605034713917

>  <metric>  (3) 
combo

>  <metric_score>  (3) 
0.365

>  <template_pid>  (3) 
1SQC

>  <template_shape_score>  (3) 
0.711

>  <template_color_score>  (3) 
0.019

>  <template_combo_score>  (3) 
0.365

$$$$
