1FCY_shape_pose
     RDKit          3D

 29 32  0  0  0  0  0  0  0  0999 V2000
  -62.1478   27.7831    3.1691 C   0  0  0  0  0  0  0  0  0  0  0  0
  -63.1932   27.3780    4.1705 C   0  0  0  0  0  0  0  0  0  0  0  0
  -62.6306   26.1546    4.9161 C   0  0  0  0  0  0  0  0  0  0  0  0
  -64.4978   26.9475    3.5828 C   0  0  0  0  0  0  0  0  0  0  0  0
  -65.3844   28.0223    3.0776 C   0  0  0  0  0  0  0  0  0  0  0  0
  -65.1901   29.3845    3.6479 C   0  0  0  0  0  0  0  0  0  0  0  0
  -64.5670   30.2611    2.5791 C   0  0  0  0  0  0  0  0  0  0  0  0
  -66.5846   29.9611    3.9357 C   0  0  0  0  0  0  0  0  0  0  0  0
  -64.4323   29.4333    4.9201 C   0  0  0  0  0  0  0  0  0  0  0  0
  -64.6514   30.4193    5.8841 C   0  0  0  0  0  0  0  0  0  0  0  0
  -63.9379   30.4594    7.0641 C   0  0  0  0  0  0  0  0  0  0  0  0
  -64.1565   31.5079    8.0749 C   0  0  0  0  0  0  0  0  0  0  0  0
  -64.5128   32.6671    7.7140 O   0  0  0  0  0  0  0  0  0  0  0  0
  -63.9545   31.1815    9.4984 C   0  0  0  0  0  0  0  0  0  0  0  0
  -64.0729   29.8586    9.9312 C   0  0  0  0  0  0  0  0  0  0  0  0
  -63.8765   29.5057   11.2549 C   0  0  0  0  0  0  0  0  0  0  0  0
  -63.5580   30.5076   12.1448 C   0  0  0  0  0  0  0  0  0  0  0  0
  -63.3604   30.1760   13.4688 C   0  0  0  0  0  0  0  0  0  0  0  0
  -63.0419   31.1163   14.4242 C   0  0  0  0  0  0  0  0  0  0  0  0
  -62.8568   30.6470   15.7966 C   0  0  0  0  0  0  0  0  0  0  0  0
  -62.9873   29.4110   16.1025 O   0  0  0  0  0  0  0  0  0  0  0  0
  -62.5297   31.5159   16.8448 O   0  0  0  0  0  0  0  0  0  0  0  0
  -62.9126   32.4414   14.0564 C   0  0  0  0  0  0  0  0  0  0  0  0
  -63.1102   32.7799   12.7208 C   0  0  0  0  0  0  0  0  0  0  0  0
  -63.4285   31.8391   11.7692 C   0  0  0  0  0  0  0  0  0  0  0  0
  -63.6314   32.1732   10.4243 C   0  0  0  0  0  0  0  0  0  0  0  0
  -62.9754   29.4626    7.2565 C   0  0  0  0  0  0  0  0  0  0  0  0
  -62.7444   28.4799    6.3165 C   0  0  0  0  0  0  0  0  0  0  0  0
  -63.4762   28.4694    5.1491 C   0  0  0  0  0  0  0  0  0  0  0  0
  1  2  1  0
  2  3  1  0
  2  4  1  0
  4  5  1  0
  5  6  1  0
  6  7  1  0
  6  8  1  0
  6  9  1  0
  9 10  2  0
 10 11  1  0
 11 12  1  0
 12 13  2  0
 12 14  1  0
 14 15  2  0
 15 16  1  0
 16 17  2  0
 17 18  1  0
 18 19  2  0
 19 20  1  0
 20 21  2  0
 20 22  1  0
 19 23  1  0
 23 24  2  0
 24 25  1  0
 25 26  2  0
 11 27  2  0
 27 28  1  0
 28 29  2  0
 29  2  1  0
 29  9  1  0
 26 14  1  0
 25 17  1  0
M  CHG  1  22  -1
M  END
>  <shape_align_shape_tanimoto>  (1) 
0.26047610216664085

>  <shape_align_color_tanimoto>  (1) 
0.0046619097042227709

>  <metric>  (1) 
shape

>  <metric_score>  (1) 
0.260

>  <template_pid>  (1) 
1FCY

>  <template_shape_score>  (1) 
0.260

>  <template_color_score>  (1) 
0.005

>  <template_combo_score>  (1) 
0.133

$$$$
1FCY_color_pose
     RDKit          3D

 29 32  0  0  0  0  0  0  0  0999 V2000
  -65.9703   31.5112   12.1337 C   0  0  0  0  0  0  0  0  0  0  0  0
  -65.2638   32.4955   11.2228 C   0  0  0  0  0  0  0  0  0  0  0  0
  -66.0351   33.7621   11.2344 C   0  0  0  0  0  0  0  0  0  0  0  0
  -63.8736   32.7779   11.7869 C   0  0  0  0  0  0  0  0  0  0  0  0
  -62.9629   31.6131   11.8099 C   0  0  0  0  0  0  0  0  0  0  0  0
  -63.1771   30.5530   10.7940 C   0  0  0  0  0  0  0  0  0  0  0  0
  -61.8168   30.2282   10.1831 C   0  0  0  0  0  0  0  0  0  0  0  0
  -63.6545   29.2664   11.4703 C   0  0  0  0  0  0  0  0  0  0  0  0
  -64.0654   30.9366    9.6674 C   0  0  0  0  0  0  0  0  0  0  0  0
  -63.9132   30.3750    8.3936 C   0  0  0  0  0  0  0  0  0  0  0  0
  -64.7274   30.7198    7.3398 C   0  0  0  0  0  0  0  0  0  0  0  0
  -64.6327   30.1663    6.0068 C   0  0  0  0  0  0  0  0  0  0  0  0
  -65.0924   30.8766    5.0615 O   0  0  0  0  0  0  0  0  0  0  0  0
  -64.0672   28.8873    5.6465 C   0  0  0  0  0  0  0  0  0  0  0  0
  -63.9564   27.8027    6.4791 C   0  0  0  0  0  0  0  0  0  0  0  0
  -63.3848   26.6026    6.0731 C   0  0  0  0  0  0  0  0  0  0  0  0
  -62.8943   26.4399    4.7955 C   0  0  0  0  0  0  0  0  0  0  0  0
  -62.3185   25.2749    4.3403 C   0  0  0  0  0  0  0  0  0  0  0  0
  -61.8432   25.1795    3.0379 C   0  0  0  0  0  0  0  0  0  0  0  0
  -61.2294   23.9433    2.5501 C   0  0  0  0  0  0  0  0  0  0  0  0
  -61.1115   22.9302    3.2855 O   0  0  0  0  0  0  0  0  0  0  0  0
  -60.7706   23.8955    1.2488 O   0  0  0  0  0  0  0  0  0  0  0  0
  -61.9618   26.2850    2.2055 C   0  0  0  0  0  0  0  0  0  0  0  0
  -62.5367   27.4581    2.6493 C   0  0  0  0  0  0  0  0  0  0  0  0
  -62.9985   27.5203    3.9463 C   0  0  0  0  0  0  0  0  0  0  0  0
  -63.5652   28.7095    4.3500 C   0  0  0  0  0  0  0  0  0  0  0  0
  -65.7158   31.6678    7.6221 C   0  0  0  0  0  0  0  0  0  0  0  0
  -65.8651   32.2190    8.8722 C   0  0  0  0  0  0  0  0  0  0  0  0
  -65.0468   31.8708    9.9292 C   0  0  0  0  0  0  0  0  0  0  0  0
  1  2  1  0
  2  3  1  0
  2  4  1  0
  4  5  1  0
  5  6  1  0
  6  7  1  0
  6  8  1  0
  6  9  1  0
  9 10  2  0
 10 11  1  0
 11 12  1  0
 12 13  2  0
 12 14  1  0
 14 15  2  0
 15 16  1  0
 16 17  2  0
 17 18  1  0
 18 19  2  0
 19 20  1  0
 20 21  2  0
 20 22  1  0
 19 23  1  0
 23 24  2  0
 24 25  1  0
 25 26  2  0
 11 27  2  0
 27 28  1  0
 28 29  2  0
 29  2  1  0
 29  9  1  0
 26 14  1  0
 25 17  1  0
M  CHG  1  22  -1
M  END
>  <shape_align_shape_tanimoto>  (2) 
0.22554223860178729

>  <shape_align_color_tanimoto>  (2) 
0.015631974118192858

>  <metric>  (2) 
color

>  <metric_score>  (2) 
0.016

>  <template_pid>  (2) 
1FCY

>  <template_shape_score>  (2) 
0.226

>  <template_color_score>  (2) 
0.016

>  <template_combo_score>  (2) 
0.121

$$$$
1FCY_combo_pose
     RDKit          3D

 29 32  0  0  0  0  0  0  0  0999 V2000
  -62.1478   27.7831    3.1691 C   0  0  0  0  0  0  0  0  0  0  0  0
  -63.1932   27.3780    4.1705 C   0  0  0  0  0  0  0  0  0  0  0  0
  -62.6306   26.1546    4.9161 C   0  0  0  0  0  0  0  0  0  0  0  0
  -64.4978   26.9475    3.5828 C   0  0  0  0  0  0  0  0  0  0  0  0
  -65.3844   28.0223    3.0776 C   0  0  0  0  0  0  0  0  0  0  0  0
  -65.1901   29.3845    3.6479 C   0  0  0  0  0  0  0  0  0  0  0  0
  -64.5670   30.2611    2.5791 C   0  0  0  0  0  0  0  0  0  0  0  0
  -66.5846   29.9611    3.9357 C   0  0  0  0  0  0  0  0  0  0  0  0
  -64.4323   29.4333    4.9201 C   0  0  0  0  0  0  0  0  0  0  0  0
  -64.6514   30.4193    5.8841 C   0  0  0  0  0  0  0  0  0  0  0  0
  -63.9379   30.4594    7.0641 C   0  0  0  0  0  0  0  0  0  0  0  0
  -64.1565   31.5079    8.0749 C   0  0  0  0  0  0  0  0  0  0  0  0
  -64.5128   32.6671    7.7140 O   0  0  0  0  0  0  0  0  0  0  0  0
  -63.9545   31.1815    9.4984 C   0  0  0  0  0  0  0  0  0  0  0  0
  -64.0729   29.8586    9.9312 C   0  0  0  0  0  0  0  0  0  0  0  0
  -63.8765   29.5057   11.2549 C   0  0  0  0  0  0  0  0  0  0  0  0
  -63.5580   30.5076   12.1448 C   0  0  0  0  0  0  0  0  0  0  0  0
  -63.3604   30.1760   13.4688 C   0  0  0  0  0  0  0  0  0  0  0  0
  -63.0419   31.1163   14.4242 C   0  0  0  0  0  0  0  0  0  0  0  0
  -62.8568   30.6470   15.7966 C   0  0  0  0  0  0  0  0  0  0  0  0
  -62.9873   29.4110   16.1025 O   0  0  0  0  0  0  0  0  0  0  0  0
  -62.5297   31.5159   16.8448 O   0  0  0  0  0  0  0  0  0  0  0  0
  -62.9126   32.4414   14.0564 C   0  0  0  0  0  0  0  0  0  0  0  0
  -63.1102   32.7799   12.7208 C   0  0  0  0  0  0  0  0  0  0  0  0
  -63.4285   31.8391   11.7692 C   0  0  0  0  0  0  0  0  0  0  0  0
  -63.6314   32.1732   10.4243 C   0  0  0  0  0  0  0  0  0  0  0  0
  -62.9754   29.4626    7.2565 C   0  0  0  0  0  0  0  0  0  0  0  0
  -62.7444   28.4799    6.3165 C   0  0  0  0  0  0  0  0  0  0  0  0
  -63.4762   28.4694    5.1491 C   0  0  0  0  0  0  0  0  0  0  0  0
  1  2  1  0
  2  3  1  0
  2  4  1  0
  4  5  1  0
  5  6  1  0
  6  7  1  0
  6  8  1  0
  6  9  1  0
  9 10  2  0
 10 11  1  0
 11 12  1  0
 12 13  2  0
 12 14  1  0
 14 15  2  0
 15 16  1  0
 16 17  2  0
 17 18  1  0
 18 19  2  0
 19 20  1  0
 20 21  2  0
 20 22  1  0
 19 23  1  0
 23 24  2  0
 24 25  1  0
 25 26  2  0
 11 27  2  0
 27 28  1  0
 28 29  2  0
 29  2  1  0
 29  9  1  0
 26 14  1  0
 25 17  1  0
M  CHG  1  22  -1
M  END
>  <shape_align_shape_tanimoto>  (3) 
0.26047610216664085

>  <shape_align_color_tanimoto>  (3) 
0.0046619097042227709

>  <metric>  (3) 
combo

>  <metric_score>  (3) 
0.133

>  <template_pid>  (3) 
1FCY

>  <template_shape_score>  (3) 
0.260

>  <template_color_score>  (3) 
0.005

>  <template_combo_score>  (3) 
0.133

$$$$
