5LYY_shape_pose
     RDKit          3D

 22 24  0  0  0  0  0  0  0  0999 V2000
  -32.4488   34.2486  -27.1705 O   0  0  0  0  0  0  0  0  0  0  0  0
  -32.4034   33.6476  -26.0510 C   0  0  0  0  0  0  0  0  0  0  0  0
  -31.9939   32.2781  -25.8518 N   0  0  0  0  0  0  0  0  0  0  0  0
  -31.5216   32.2493  -24.4690 C   0  0  0  0  0  0  0  0  0  0  0  0
  -30.1396   32.8428  -24.4993 C   0  0  0  0  0  0  0  0  0  0  0  0
  -29.6937   33.0660  -23.0833 C   0  0  0  0  0  0  0  0  0  0  0  0
  -30.0627   31.9691  -22.1452 C   0  0  0  0  0  0  0  0  0  0  0  0
  -30.4930   30.6968  -22.8114 C   0  0  0  0  0  0  0  0  0  0  0  0
  -31.4314   30.8676  -23.9450 C   0  0  0  0  0  0  0  0  0  0  0  0
  -32.5252   33.1240  -23.8369 C   0  0  0  0  0  0  0  0  0  0  0  0
  -33.1153   33.0234  -22.7238 O   0  0  0  0  0  0  0  0  0  0  0  0
  -32.7477   34.2038  -24.7647 N   0  0  0  0  0  0  0  0  0  0  0  0
  -33.2105   35.5450  -24.4854 C   0  0  0  0  0  0  0  0  0  0  0  0
  -34.6937   35.6948  -24.5367 C   0  0  0  0  0  0  0  0  0  0  0  0
  -35.3656   34.8766  -23.6140 O   0  0  0  0  0  0  0  0  0  0  0  0
  -36.7622   34.9524  -23.5927 C   0  0  0  0  0  0  0  0  0  0  0  0
  -37.4635   34.1669  -22.7028 C   0  0  0  0  0  0  0  0  0  0  0  0
  -38.8422   34.2426  -22.6826 C   0  0  0  0  0  0  0  0  0  0  0  0
  -39.5626   35.0696  -23.5127 C   0  0  0  0  0  0  0  0  0  0  0  0
  -40.9186   35.1484  -23.4975 F   0  0  0  0  0  0  0  0  0  0  0  0
  -38.8542   35.8636  -24.4122 C   0  0  0  0  0  0  0  0  0  0  0  0
  -37.4762   35.7826  -24.4266 C   0  0  0  0  0  0  0  0  0  0  0  0
  1  2  2  0
  2  3  1  0
  3  4  1  0
  4  5  1  0
  5  6  1  0
  6  7  1  0
  7  8  1  0
  8  9  1  0
  4 10  1  0
 10 11  2  0
 10 12  1  0
 12 13  1  0
 13 14  1  0
 14 15  1  0
 15 16  1  0
 16 17  2  0
 17 18  1  0
 18 19  2  0
 19 20  1  0
 19 21  1  0
 21 22  2  0
 12  2  1  0
 22 16  1  0
  9  4  1  0
M  END
>  <shape_align_shape_tanimoto>  (1) 
0.7770253236998752

>  <shape_align_color_tanimoto>  (1) 
0.074328156757117111

>  <metric>  (1) 
shape

>  <metric_score>  (1) 
0.777

>  <template_pid>  (1) 
5LYY

>  <template_shape_score>  (1) 
0.777

>  <template_color_score>  (1) 
0.074

>  <template_combo_score>  (1) 
0.426

$$$$
5LYY_color_pose
     RDKit          3D

 22 24  0  0  0  0  0  0  0  0999 V2000
  -34.7280   36.9684  -26.3358 O   0  0  0  0  0  0  0  0  0  0  0  0
  -35.4323   36.5140  -25.3952 C   0  0  0  0  0  0  0  0  0  0  0  0
  -36.7939   36.7957  -25.0838 N   0  0  0  0  0  0  0  0  0  0  0  0
  -37.2877   35.7426  -24.2225 C   0  0  0  0  0  0  0  0  0  0  0  0
  -37.7364   34.5182  -25.0200 C   0  0  0  0  0  0  0  0  0  0  0  0
  -37.9805   33.4015  -24.0211 C   0  0  0  0  0  0  0  0  0  0  0  0
  -38.9316   33.7964  -22.9318 C   0  0  0  0  0  0  0  0  0  0  0  0
  -39.4693   35.1866  -23.1803 C   0  0  0  0  0  0  0  0  0  0  0  0
  -38.3669   36.2209  -23.2920 C   0  0  0  0  0  0  0  0  0  0  0  0
  -36.0462   35.3088  -23.5246 C   0  0  0  0  0  0  0  0  0  0  0  0
  -35.9390   34.8044  -22.3891 O   0  0  0  0  0  0  0  0  0  0  0  0
  -34.9733   35.5813  -24.4121 N   0  0  0  0  0  0  0  0  0  0  0  0
  -33.6089   35.0390  -24.3865 C   0  0  0  0  0  0  0  0  0  0  0  0
  -33.5680   33.7781  -25.2097 C   0  0  0  0  0  0  0  0  0  0  0  0
  -32.3707   33.1253  -25.3003 O   0  0  0  0  0  0  0  0  0  0  0  0
  -31.5943   32.5300  -24.3623 C   0  0  0  0  0  0  0  0  0  0  0  0
  -31.8409   32.4129  -23.0215 C   0  0  0  0  0  0  0  0  0  0  0  0
  -30.9735   31.7816  -22.1351 C   0  0  0  0  0  0  0  0  0  0  0  0
  -29.7984   31.2368  -22.6067 C   0  0  0  0  0  0  0  0  0  0  0  0
  -28.9826   30.6316  -21.7115 F   0  0  0  0  0  0  0  0  0  0  0  0
  -29.5165   31.3349  -23.9514 C   0  0  0  0  0  0  0  0  0  0  0  0
  -30.3886   31.9639  -24.8101 C   0  0  0  0  0  0  0  0  0  0  0  0
  1  2  2  0
  2  3  1  0
  3  4  1  0
  4  5  1  0
  5  6  1  0
  6  7  1  0
  7  8  1  0
  8  9  1  0
  4 10  1  0
 10 11  2  0
 10 12  1  0
 12 13  1  0
 13 14  1  0
 14 15  1  0
 15 16  1  0
 16 17  2  0
 17 18  1  0
 18 19  2  0
 19 20  1  0
 19 21  1  0
 21 22  2  0
 12  2  1  0
 22 16  1  0
  9  4  1  0
M  END
>  <shape_align_shape_tanimoto>  (2) 
0.69896832210595516

>  <shape_align_color_tanimoto>  (2) 
0.14501185461059501

>  <metric>  (2) 
color

>  <metric_score>  (2) 
0.145

>  <template_pid>  (2) 
5LYY

>  <template_shape_score>  (2) 
0.699

>  <template_color_score>  (2) 
0.145

>  <template_combo_score>  (2) 
0.422

$$$$
5LYY_combo_pose
     RDKit          3D

 22 24  0  0  0  0  0  0  0  0999 V2000
  -32.4488   34.2486  -27.1705 O   0  0  0  0  0  0  0  0  0  0  0  0
  -32.4034   33.6476  -26.0510 C   0  0  0  0  0  0  0  0  0  0  0  0
  -31.9939   32.2781  -25.8518 N   0  0  0  0  0  0  0  0  0  0  0  0
  -31.5216   32.2493  -24.4690 C   0  0  0  0  0  0  0  0  0  0  0  0
  -30.1396   32.8428  -24.4993 C   0  0  0  0  0  0  0  0  0  0  0  0
  -29.6937   33.0660  -23.0833 C   0  0  0  0  0  0  0  0  0  0  0  0
  -30.0627   31.9691  -22.1452 C   0  0  0  0  0  0  0  0  0  0  0  0
  -30.4930   30.6968  -22.8114 C   0  0  0  0  0  0  0  0  0  0  0  0
  -31.4314   30.8676  -23.9450 C   0  0  0  0  0  0  0  0  0  0  0  0
  -32.5252   33.1240  -23.8369 C   0  0  0  0  0  0  0  0  0  0  0  0
  -33.1153   33.0234  -22.7238 O   0  0  0  0  0  0  0  0  0  0  0  0
  -32.7477   34.2038  -24.7647 N   0  0  0  0  0  0  0  0  0  0  0  0
  -33.2105   35.5450  -24.4854 C   0  0  0  0  0  0  0  0  0  0  0  0
  -34.6937   35.6948  -24.5367 C   0  0  0  0  0  0  0  0  0  0  0  0
  -35.3656   34.8766  -23.6140 O   0  0  0  0  0  0  0  0  0  0  0  0
  -36.7622   34.9524  -23.5927 C   0  0  0  0  0  0  0  0  0  0  0  0
  -37.4635   34.1669  -22.7028 C   0  0  0  0  0  0  0  0  0  0  0  0
  -38.8422   34.2426  -22.6826 C   0  0  0  0  0  0  0  0  0  0  0  0
  -39.5626   35.0696  -23.5127 C   0  0  0  0  0  0  0  0  0  0  0  0
  -40.9186   35.1484  -23.4975 F   0  0  0  0  0  0  0  0  0  0  0  0
  -38.8542   35.8636  -24.4122 C   0  0  0  0  0  0  0  0  0  0  0  0
  -37.4762   35.7826  -24.4266 C   0  0  0  0  0  0  0  0  0  0  0  0
  1  2  2  0
  2  3  1  0
  3  4  1  0
  4  5  1  0
  5  6  1  0
  6  7  1  0
  7  8  1  0
  8  9  1  0
  4 10  1  0
 10 11  2  0
 10 12  1  0
 12 13  1  0
 13 14  1  0
 14 15  1  0
 15 16  1  0
 16 17  2  0
 17 18  1  0
 18 19  2  0
 19 20  1  0
 19 21  1  0
 21 22  2  0
 12  2  1  0
 22 16  1  0
  9  4  1  0
M  END
>  <shape_align_shape_tanimoto>  (3) 
0.7770253236998752

>  <shape_align_color_tanimoto>  (3) 
0.074328156757117111

>  <metric>  (3) 
combo

>  <metric_score>  (3) 
0.426

>  <template_pid>  (3) 
5LYY

>  <template_shape_score>  (3) 
0.777

>  <template_color_score>  (3) 
0.074

>  <template_combo_score>  (3) 
0.426

$$$$
