4OGN_shape_pose
     RDKit          3D

 44 48  0  0  0  0  0  0  0  0999 V2000
  -16.9558  -11.2383  -24.1930 C   0  0  0  0  0  0  0  0  0  0  0  0
  -15.6345  -11.7827  -24.6268 C   0  0  0  0  0  0  0  0  0  0  0  0
  -14.6864  -10.6311  -24.8932 C   0  0  0  0  0  0  0  0  0  0  0  0
  -15.6916  -12.6243  -25.8643 C   0  0  0  0  0  0  0  0  0  0  0  0
  -14.8697  -12.7719  -23.2959 S   0  0  0  0  0  0  0  0  0  0  0  0
  -13.5142  -13.0821  -23.8452 O   0  0  0  0  0  0  0  0  0  0  0  0
  -14.6690  -11.7431  -22.2319 O   0  0  0  0  0  0  0  0  0  0  0  0
  -15.8665  -14.0769  -22.8736 C   0  0  0  0  0  0  0  0  0  0  0  0
  -15.6131  -15.1038  -21.8750 C   0  0  2  0  0  0  0  0  0  0  0  0
  -15.4498  -14.8408  -20.4435 C   0  0  0  0  0  0  0  0  0  0  0  0
  -16.6177  -14.2205  -19.7174 C   0  0  0  0  0  0  0  0  0  0  0  0
  -15.1722  -13.6709  -19.6675 C   0  0  0  0  0  0  0  0  0  0  0  0
  -14.7237  -16.1816  -22.3515 N   0  0  0  0  0  0  0  0  0  0  0  0
  -13.3171  -15.8600  -22.3813 C   0  0  0  0  0  0  0  0  0  0  0  0
  -12.8052  -15.0365  -21.5820 O   0  0  0  0  0  0  0  0  0  0  0  0
  -12.4965  -16.5708  -23.4273 C   0  0  1  0  0  0  0  0  0  0  0  0
  -12.8440  -16.0891  -24.7940 C   0  0  0  0  0  0  0  0  0  0  0  0
  -11.0321  -16.3060  -23.1432 C   0  0  0  0  0  0  0  0  0  0  0  0
  -10.1073  -16.9395  -24.0849 C   0  0  0  0  0  0  0  0  0  0  0  0
   -9.6430  -16.3626  -25.2483 C   0  0  0  0  0  0  0  0  0  0  0  0
   -8.7838  -17.0547  -26.0409 C   0  0  0  0  0  0  0  0  0  0  0  0
   -8.3400  -18.3385  -25.7339 C   0  0  0  0  0  0  0  0  0  0  0  0
   -7.4279  -19.0461  -26.5960 C   0  0  0  0  0  0  0  0  0  0  0  0
   -6.9695  -18.5655  -27.6758 O   0  0  0  0  0  0  0  0  0  0  0  0
   -7.0237  -20.3196  -26.2357 O   0  0  0  0  0  0  0  0  0  0  0  0
   -8.8226  -18.8831  -24.5670 C   0  0  0  0  0  0  0  0  0  0  0  0
   -9.6738  -18.1946  -23.7842 N   0  0  0  0  0  0  0  0  0  0  0  0
  -12.7321  -18.0426  -23.2510 C   0  0  0  0  0  0  0  0  0  0  0  0
  -14.1111  -18.4814  -23.0038 C   0  0  2  0  0  0  0  0  0  0  0  0
  -14.5116  -19.5338  -24.0043 C   0  0  0  0  0  0  0  0  0  0  0  0
  -14.7353  -20.8498  -23.6049 C   0  0  0  0  0  0  0  0  0  0  0  0
  -15.1061  -21.8327  -24.5158 C   0  0  0  0  0  0  0  0  0  0  0  0
  -15.2608  -21.5177  -25.8467 C   0  0  0  0  0  0  0  0  0  0  0  0
  -15.0443  -20.2210  -26.2639 C   0  0  0  0  0  0  0  0  0  0  0  0
  -15.2412  -19.8162  -27.9618 Cl  0  0  0  0  0  0  0  0  0  0  0  0
  -14.6729  -19.2519  -25.3317 C   0  0  0  0  0  0  0  0  0  0  0  0
  -15.1745  -17.4522  -22.8075 C   0  0  1  0  0  0  0  0  0  0  0  0
  -16.2858  -18.0727  -22.0475 C   0  0  0  0  0  0  0  0  0  0  0  0
  -16.2457  -18.3491  -20.7004 C   0  0  0  0  0  0  0  0  0  0  0  0
  -17.3026  -18.9167  -20.0082 C   0  0  0  0  0  0  0  0  0  0  0  0
  -18.4559  -19.2333  -20.6510 C   0  0  0  0  0  0  0  0  0  0  0  0
  -19.7613  -19.9488  -19.7292 Cl  0  0  0  0  0  0  0  0  0  0  0  0
  -18.5424  -18.9751  -22.0013 C   0  0  0  0  0  0  0  0  0  0  0  0
  -17.4902  -18.4101  -22.6888 C   0  0  0  0  0  0  0  0  0  0  0  0
  1  2  1  0
  2  3  1  0
  2  4  1  0
  2  5  1  0
  5  6  2  0
  5  7  2  0
  5  8  1  0
  9  8  1  6
  9 10  1  0
 10 11  1  0
 11 12  1  0
  9 13  1  0
 13 14  1  0
 14 15  2  0
 14 16  1  0
 16 17  1  6
 16 18  1  0
 18 19  1  0
 19 20  2  0
 20 21  1  0
 21 22  2  0
 22 23  1  0
 23 24  2  0
 23 25  1  0
 22 26  1  0
 26 27  2  0
 16 28  1  0
 28 29  1  0
 29 30  1  6
 30 31  2  0
 31 32  1  0
 32 33  2  0
 33 34  1  0
 34 35  1  0
 34 36  2  0
 29 37  1  0
 37 38  1  1
 38 39  2  0
 39 40  1  0
 40 41  2  0
 41 42  1  0
 41 43  1  0
 43 44  2  0
 12 10  1  0
 37 13  1  0
 44 38  1  0
 27 19  1  0
 36 30  1  0
M  CHG  1  25  -1
M  END
>  <shape_align_shape_tanimoto>  (1) 
0.3336279306197536

>  <shape_align_color_tanimoto>  (1) 
0.015456814832289544

>  <metric>  (1) 
shape

>  <metric_score>  (1) 
0.334

>  <template_pid>  (1) 
4OGN

>  <template_shape_score>  (1) 
0.334

>  <template_color_score>  (1) 
0.015

>  <template_combo_score>  (1) 
0.175

$$$$
4OGN_color_pose
     RDKit          3D

 44 48  0  0  0  0  0  0  0  0999 V2000
  -17.5639  -19.8316  -26.5049 C   0  0  0  0  0  0  0  0  0  0  0  0
  -17.0728  -18.5470  -25.9115 C   0  0  0  0  0  0  0  0  0  0  0  0
  -16.6920  -17.5406  -26.9759 C   0  0  0  0  0  0  0  0  0  0  0  0
  -18.2111  -17.9341  -25.1242 C   0  0  0  0  0  0  0  0  0  0  0  0
  -15.6438  -18.8663  -24.8336 S   0  0  0  0  0  0  0  0  0  0  0  0
  -16.2075  -19.8454  -23.8853 O   0  0  0  0  0  0  0  0  0  0  0  0
  -14.6567  -19.4642  -25.8074 O   0  0  0  0  0  0  0  0  0  0  0  0
  -15.2121  -17.2882  -24.2402 C   0  0  0  0  0  0  0  0  0  0  0  0
  -14.0346  -17.1341  -23.3038 C   0  0  2  0  0  0  0  0  0  0  0  0
  -14.3004  -17.9217  -22.0989 C   0  0  0  0  0  0  0  0  0  0  0  0
  -13.6042  -18.2086  -20.8706 C   0  0  0  0  0  0  0  0  0  0  0  0
  -14.7648  -17.2040  -20.9183 C   0  0  0  0  0  0  0  0  0  0  0  0
  -13.6163  -15.7635  -23.3196 N   0  0  0  0  0  0  0  0  0  0  0  0
  -14.4753  -14.6846  -22.8336 C   0  0  0  0  0  0  0  0  0  0  0  0
  -15.7251  -14.8586  -22.8372 O   0  0  0  0  0  0  0  0  0  0  0  0
  -13.9319  -13.4107  -22.3467 C   0  0  1  0  0  0  0  0  0  0  0  0
  -14.6687  -12.2245  -23.0424 C   0  0  0  0  0  0  0  0  0  0  0  0
  -14.0931  -13.1576  -20.8701 C   0  0  0  0  0  0  0  0  0  0  0  0
  -15.4935  -13.1139  -20.4018 C   0  0  0  0  0  0  0  0  0  0  0  0
  -16.1622  -11.8843  -20.4031 C   0  0  0  0  0  0  0  0  0  0  0  0
  -17.4886  -11.8053  -19.9665 C   0  0  0  0  0  0  0  0  0  0  0  0
  -18.1668  -12.9259  -19.5273 C   0  0  0  0  0  0  0  0  0  0  0  0
  -19.5499  -12.8585  -19.0688 C   0  0  0  0  0  0  0  0  0  0  0  0
  -20.1915  -11.7564  -19.0559 O   0  0  0  0  0  0  0  0  0  0  0  0
  -20.1562  -14.0323  -18.6435 O   0  0  0  0  0  0  0  0  0  0  0  0
  -17.4622  -14.1341  -19.5421 C   0  0  0  0  0  0  0  0  0  0  0  0
  -16.1991  -14.1619  -19.9667 N   0  0  0  0  0  0  0  0  0  0  0  0
  -12.5025  -13.1287  -22.7227 C   0  0  0  0  0  0  0  0  0  0  0  0
  -11.7890  -14.4156  -22.6465 C   0  0  2  0  0  0  0  0  0  0  0  0
  -10.3381  -14.1464  -22.7915 C   0  0  0  0  0  0  0  0  0  0  0  0
   -9.9299  -13.4187  -23.8972 C   0  0  0  0  0  0  0  0  0  0  0  0
   -8.5877  -13.1460  -24.0698 C   0  0  0  0  0  0  0  0  0  0  0  0
   -7.6801  -13.6127  -23.1228 C   0  0  0  0  0  0  0  0  0  0  0  0
   -8.0717  -14.3366  -22.0200 C   0  0  0  0  0  0  0  0  0  0  0  0
   -6.8481  -14.8854  -20.8749 Cl  0  0  0  0  0  0  0  0  0  0  0  0
   -9.3993  -14.5990  -21.8614 C   0  0  0  0  0  0  0  0  0  0  0  0
  -12.3296  -15.2930  -23.8021 C   0  0  1  0  0  0  0  0  0  0  0  0
  -11.2581  -16.1725  -24.1039 C   0  0  0  0  0  0  0  0  0  0  0  0
  -10.5383  -16.0662  -25.3083 C   0  0  0  0  0  0  0  0  0  0  0  0
   -9.5046  -16.8811  -25.6339 C   0  0  0  0  0  0  0  0  0  0  0  0
   -9.0987  -17.8691  -24.7926 C   0  0  0  0  0  0  0  0  0  0  0  0
   -7.7757  -18.9614  -25.1381 Cl  0  0  0  0  0  0  0  0  0  0  0  0
   -9.7638  -18.0227  -23.5994 C   0  0  0  0  0  0  0  0  0  0  0  0
  -10.8040  -17.2021  -23.2724 C   0  0  0  0  0  0  0  0  0  0  0  0
  1  2  1  0
  2  3  1  0
  2  4  1  0
  2  5  1  0
  5  6  2  0
  5  7  2  0
  5  8  1  0
  9  8  1  6
  9 10  1  0
 10 11  1  0
 11 12  1  0
  9 13  1  0
 13 14  1  0
 14 15  2  0
 14 16  1  0
 16 17  1  6
 16 18  1  0
 18 19  1  0
 19 20  2  0
 20 21  1  0
 21 22  2  0
 22 23  1  0
 23 24  2  0
 23 25  1  0
 22 26  1  0
 26 27  2  0
 16 28  1  0
 28 29  1  0
 29 30  1  6
 30 31  2  0
 31 32  1  0
 32 33  2  0
 33 34  1  0
 34 35  1  0
 34 36  2  0
 29 37  1  0
 37 38  1  1
 38 39  2  0
 39 40  1  0
 40 41  2  0
 41 42  1  0
 41 43  1  0
 43 44  2  0
 12 10  1  0
 37 13  1  0
 44 38  1  0
 27 19  1  0
 36 30  1  0
M  CHG  1  25  -1
M  END
>  <shape_align_shape_tanimoto>  (2) 
0.28986607529597225

>  <shape_align_color_tanimoto>  (2) 
0.036591930877033947

>  <metric>  (2) 
color

>  <metric_score>  (2) 
0.037

>  <template_pid>  (2) 
4OGN

>  <template_shape_score>  (2) 
0.290

>  <template_color_score>  (2) 
0.037

>  <template_combo_score>  (2) 
0.163

$$$$
4OGN_combo_pose
     RDKit          3D

 44 48  0  0  0  0  0  0  0  0999 V2000
  -14.3008   -8.3630  -18.3244 C   0  0  0  0  0  0  0  0  0  0  0  0
  -14.6266   -9.1049  -19.5965 C   0  0  0  0  0  0  0  0  0  0  0  0
  -16.0782   -8.9257  -19.9150 C   0  0  0  0  0  0  0  0  0  0  0  0
  -13.8077   -8.4746  -20.7029 C   0  0  0  0  0  0  0  0  0  0  0  0
  -14.1595  -10.7985  -19.3372 S   0  0  0  0  0  0  0  0  0  0  0  0
  -12.7097  -10.7775  -18.9666 O   0  0  0  0  0  0  0  0  0  0  0  0
  -14.9366  -11.3157  -18.1617 O   0  0  0  0  0  0  0  0  0  0  0  0
  -14.4950  -11.7900  -20.7737 C   0  0  0  0  0  0  0  0  0  0  0  0
  -14.0831  -13.2482  -20.5074 C   0  0  2  0  0  0  0  0  0  0  0  0
  -12.6263  -13.2838  -20.1996 C   0  0  0  0  0  0  0  0  0  0  0  0
  -11.8891  -14.5210  -19.8872 C   0  0  0  0  0  0  0  0  0  0  0  0
  -12.2465  -13.6500  -18.7494 C   0  0  0  0  0  0  0  0  0  0  0  0
  -14.4906  -14.1089  -21.6070 N   0  0  0  0  0  0  0  0  0  0  0  0
  -15.5154  -15.0620  -21.3902 C   0  0  0  0  0  0  0  0  0  0  0  0
  -16.4672  -14.8026  -20.5771 O   0  0  0  0  0  0  0  0  0  0  0  0
  -15.5496  -16.3749  -22.0679 C   0  0  1  0  0  0  0  0  0  0  0  0
  -14.8074  -17.4374  -21.2901 C   0  0  0  0  0  0  0  0  0  0  0  0
  -16.9893  -16.8679  -22.1381 C   0  0  0  0  0  0  0  0  0  0  0  0
  -17.0526  -18.1697  -22.8147 C   0  0  0  0  0  0  0  0  0  0  0  0
  -16.9711  -19.3907  -22.1995 C   0  0  0  0  0  0  0  0  0  0  0  0
  -17.0404  -20.5987  -22.8707 C   0  0  0  0  0  0  0  0  0  0  0  0
  -17.2012  -20.5533  -24.2385 C   0  0  0  0  0  0  0  0  0  0  0  0
  -17.2834  -21.7980  -25.0271 C   0  0  0  0  0  0  0  0  0  0  0  0
  -17.2142  -22.9312  -24.5175 O   0  0  0  0  0  0  0  0  0  0  0  0
  -17.4450  -21.6767  -26.3995 O   0  0  0  0  0  0  0  0  0  0  0  0
  -17.2793  -19.3173  -24.8229 C   0  0  0  0  0  0  0  0  0  0  0  0
  -17.2110  -18.1557  -24.1636 N   0  0  0  0  0  0  0  0  0  0  0  0
  -15.0123  -16.2707  -23.4339 C   0  0  0  0  0  0  0  0  0  0  0  0
  -14.0283  -15.2282  -23.7753 C   0  0  2  0  0  0  0  0  0  0  0  0
  -12.6821  -15.8157  -24.1510 C   0  0  0  0  0  0  0  0  0  0  0  0
  -12.2761  -15.8818  -25.4724 C   0  0  0  0  0  0  0  0  0  0  0  0
  -11.0542  -16.4067  -25.8496 C   0  0  0  0  0  0  0  0  0  0  0  0
  -10.2042  -16.8844  -24.8736 C   0  0  0  0  0  0  0  0  0  0  0  0
  -10.5771  -16.8339  -23.5478 C   0  0  0  0  0  0  0  0  0  0  0  0
   -9.5096  -17.4371  -22.2736 Cl  0  0  0  0  0  0  0  0  0  0  0  0
  -11.8073  -16.3011  -23.2114 C   0  0  0  0  0  0  0  0  0  0  0  0
  -13.8872  -14.0315  -22.9180 C   0  0  1  0  0  0  0  0  0  0  0  0
  -14.4266  -12.8407  -23.6763 C   0  0  0  0  0  0  0  0  0  0  0  0
  -15.7735  -12.5474  -23.6954 C   0  0  0  0  0  0  0  0  0  0  0  0
  -16.2500  -11.4643  -24.3984 C   0  0  0  0  0  0  0  0  0  0  0  0
  -15.4042  -10.6333  -25.1081 C   0  0  0  0  0  0  0  0  0  0  0  0
  -16.0198   -9.2680  -25.9915 Cl  0  0  0  0  0  0  0  0  0  0  0  0
  -14.0565  -10.9093  -25.1012 C   0  0  0  0  0  0  0  0  0  0  0  0
  -13.5987  -11.9988  -24.3910 C   0  0  0  0  0  0  0  0  0  0  0  0
  1  2  1  0
  2  3  1  0
  2  4  1  0
  2  5  1  0
  5  6  2  0
  5  7  2  0
  5  8  1  0
  9  8  1  6
  9 10  1  0
 10 11  1  0
 11 12  1  0
  9 13  1  0
 13 14  1  0
 14 15  2  0
 14 16  1  0
 16 17  1  1
 16 18  1  0
 18 19  1  0
 19 20  2  0
 20 21  1  0
 21 22  2  0
 22 23  1  0
 23 24  2  0
 23 25  1  0
 22 26  1  0
 26 27  2  0
 16 28  1  0
 28 29  1  0
 29 30  1  1
 30 31  2  0
 31 32  1  0
 32 33  2  0
 33 34  1  0
 34 35  1  0
 34 36  2  0
 29 37  1  0
 37 38  1  6
 38 39  2  0
 39 40  1  0
 40 41  2  0
 41 42  1  0
 41 43  1  0
 43 44  2  0
 12 10  1  0
 37 13  1  0
 44 38  1  0
 27 19  1  0
 36 30  1  0
M  CHG  1  25  -1
M  END
>  <shape_align_shape_tanimoto>  (3) 
0.31874295118903573

>  <shape_align_color_tanimoto>  (3) 
0.034741947770406276

>  <metric>  (3) 
combo

>  <metric_score>  (3) 
0.177

>  <template_pid>  (3) 
4OGN

>  <template_shape_score>  (3) 
0.319

>  <template_color_score>  (3) 
0.035

>  <template_combo_score>  (3) 
0.177

$$$$
