2GFD_shape_pose
     RDKit          3D

 28 29  0  0  0  0  0  0  0  0999 V2000
    8.2873   10.0928   22.8604 C   0  0  0  0  0  0  0  0  0  0  0  0
    7.8569   11.2494   23.5529 O   0  0  0  0  0  0  0  0  0  0  0  0
    6.5043   11.6048   23.4544 C   0  0  0  0  0  0  0  0  0  0  0  0
    5.8104   10.8357   22.7446 O   0  0  0  0  0  0  0  0  0  0  0  0
    6.0288   12.7817   24.1487 C   0  0  0  0  0  0  0  0  0  0  0  0
    6.9713   13.5226   24.8650 C   0  0  0  0  0  0  0  0  0  0  0  0
    8.3019   13.0976   24.9608 O   0  0  0  0  0  0  0  0  0  0  0  0
    6.6648   14.6956   25.5115 C   0  0  0  0  0  0  0  0  0  0  0  0
    5.3604   15.1328   25.4296 C   0  0  0  0  0  0  0  0  0  0  0  0
    5.0118   16.3313   26.0776 O   0  0  0  0  0  0  0  0  0  0  0  0
    4.4291   14.4161   24.7336 C   0  0  0  0  0  0  0  0  0  0  0  0
    2.7908   15.0577   24.6880 Cl  0  0  0  0  0  0  0  0  0  0  0  0
    4.7294   13.2127   24.0692 C   0  0  0  0  0  0  0  0  0  0  0  0
    3.6104   12.5130   23.4649 C   0  0  0  0  0  0  0  0  0  0  0  0
    2.7750   11.6282   24.2785 C   0  0  0  0  0  0  0  0  0  0  0  0
    3.2440   10.5061   25.0291 C   0  0  0  0  0  0  0  0  0  0  0  0
    4.4064   10.0914   25.2399 O   0  0  0  0  0  0  0  0  0  0  0  0
    2.2244    9.6814   25.6730 N   0  0  0  0  0  0  0  0  0  0  0  0
    2.6862    8.5699   26.4172 C   0  0  0  0  0  0  0  0  0  0  0  0
    2.4379    8.4588   27.7069 C   0  0  0  0  0  0  0  0  0  0  0  0
    2.9418    7.2876   28.4205 C   0  0  0  0  0  0  0  0  0  0  0  0
    2.7354    7.1323   29.6436 O   0  0  0  0  0  0  0  0  0  0  0  0
    3.7144    6.2378   27.7333 C   0  0  0  0  0  0  0  0  0  0  0  0
    4.2000    5.1282   28.3763 O   0  0  0  0  0  0  0  0  0  0  0  0
    5.4396    4.5522   28.0586 C   0  0  0  0  0  0  0  0  0  0  0  0
    3.9455    6.3824   26.4334 C   0  0  0  0  0  0  0  0  0  0  0  0
    3.4527    7.5478   25.6888 C   0  0  0  0  0  0  0  0  0  0  0  0
    3.6923    7.6537   24.4479 O   0  0  0  0  0  0  0  0  0  0  0  0
  1  2  1  0
  2  3  1  0
  3  4  2  0
  3  5  1  0
  5  6  2  0
  6  7  1  0
  6  8  1  0
  8  9  2  0
  9 10  1  0
  9 11  1  0
 11 12  1  0
 11 13  2  0
 13 14  1  0
 14 15  1  0
 15 16  1  0
 16 17  2  0
 16 18  1  0
 18 19  1  0
 19 20  2  0
 20 21  1  0
 21 22  2  0
 21 23  1  0
 23 24  1  0
 24 25  1  0
 23 26  2  0
 26 27  1  0
 27 28  2  0
 13  5  1  0
 27 19  1  0
M  END
>  <shape_align_shape_tanimoto>  (1) 
0.70676172263021353

>  <shape_align_color_tanimoto>  (1) 
0.10209713300003941

>  <metric>  (1) 
shape

>  <metric_score>  (1) 
0.707

>  <template_pid>  (1) 
2GFD

>  <template_shape_score>  (1) 
0.707

>  <template_color_score>  (1) 
0.102

>  <template_combo_score>  (1) 
0.404

$$$$
2GFD_color_pose
     RDKit          3D

 28 29  0  0  0  0  0  0  0  0999 V2000
    7.8360   10.4529   22.6156 C   0  0  0  0  0  0  0  0  0  0  0  0
    6.9829   11.5641   22.8224 O   0  0  0  0  0  0  0  0  0  0  0  0
    6.9450   12.0499   24.1327 C   0  0  0  0  0  0  0  0  0  0  0  0
    7.6908   11.4124   24.9535 O   0  0  0  0  0  0  0  0  0  0  0  0
    6.1381   13.1748   24.5461 C   0  0  0  0  0  0  0  0  0  0  0  0
    6.7460   14.4313   24.4753 C   0  0  0  0  0  0  0  0  0  0  0  0
    8.0596   14.5549   24.0385 O   0  0  0  0  0  0  0  0  0  0  0  0
    6.0121   15.5225   24.8466 C   0  0  0  0  0  0  0  0  0  0  0  0
    4.7202   15.4134   25.2780 C   0  0  0  0  0  0  0  0  0  0  0  0
    3.9538   16.5117   25.6617 O   0  0  0  0  0  0  0  0  0  0  0  0
    4.1310   14.1597   25.3425 C   0  0  0  0  0  0  0  0  0  0  0  0
    2.4781   14.0215   25.8967 Cl  0  0  0  0  0  0  0  0  0  0  0  0
    4.8407   13.0076   24.9727 C   0  0  0  0  0  0  0  0  0  0  0  0
    4.1380   11.7331   25.0751 C   0  0  0  0  0  0  0  0  0  0  0  0
    4.4328   10.8700   26.2393 C   0  0  0  0  0  0  0  0  0  0  0  0
    3.6016    9.6135   26.1546 C   0  0  0  0  0  0  0  0  0  0  0  0
    2.8120    9.4674   25.1834 O   0  0  0  0  0  0  0  0  0  0  0  0
    3.7032    8.5983   27.1577 N   0  0  0  0  0  0  0  0  0  0  0  0
    2.8612    7.4531   26.9625 C   0  0  0  0  0  0  0  0  0  0  0  0
    1.9431    7.1113   27.8798 C   0  0  0  0  0  0  0  0  0  0  0  0
    1.1187    5.9194   27.6006 C   0  0  0  0  0  0  0  0  0  0  0  0
    0.2463    5.5461   28.4119 O   0  0  0  0  0  0  0  0  0  0  0  0
    1.3125    5.1604   26.3699 C   0  0  0  0  0  0  0  0  0  0  0  0
    0.5739    4.0329   26.0451 O   0  0  0  0  0  0  0  0  0  0  0  0
   -0.8084    4.0353   25.7618 C   0  0  0  0  0  0  0  0  0  0  0  0
    2.2376    5.5310   25.4779 C   0  0  0  0  0  0  0  0  0  0  0  0
    3.0595    6.7042   25.7379 C   0  0  0  0  0  0  0  0  0  0  0  0
    3.9321    7.0537   24.8967 O   0  0  0  0  0  0  0  0  0  0  0  0
  1  2  1  0
  2  3  1  0
  3  4  2  0
  3  5  1  0
  5  6  2  0
  6  7  1  0
  6  8  1  0
  8  9  2  0
  9 10  1  0
  9 11  1  0
 11 12  1  0
 11 13  2  0
 13 14  1  0
 14 15  1  0
 15 16  1  0
 16 17  2  0
 16 18  1  0
 18 19  1  0
 19 20  2  0
 20 21  1  0
 21 22  2  0
 21 23  1  0
 23 24  1  0
 24 25  1  0
 23 26  2  0
 26 27  1  0
 27 28  2  0
 13  5  1  0
 27 19  1  0
M  END
>  <shape_align_shape_tanimoto>  (2) 
0.50072650898613036

>  <shape_align_color_tanimoto>  (2) 
0.13297524960547399

>  <metric>  (2) 
color

>  <metric_score>  (2) 
0.133

>  <template_pid>  (2) 
2GFD

>  <template_shape_score>  (2) 
0.501

>  <template_color_score>  (2) 
0.133

>  <template_combo_score>  (2) 
0.317

$$$$
2GFD_combo_pose
     RDKit          3D

 28 29  0  0  0  0  0  0  0  0999 V2000
    6.8804    9.8594   22.3462 C   0  0  0  0  0  0  0  0  0  0  0  0
    6.1057   10.9419   22.8511 O   0  0  0  0  0  0  0  0  0  0  0  0
    6.7194   11.8192   23.7038 C   0  0  0  0  0  0  0  0  0  0  0  0
    7.9354   11.5875   23.9711 O   0  0  0  0  0  0  0  0  0  0  0  0
    6.1233   12.9836   24.3275 C   0  0  0  0  0  0  0  0  0  0  0  0
    6.9544   13.7502   25.1382 C   0  0  0  0  0  0  0  0  0  0  0  0
    8.2696   13.4005   25.4114 O   0  0  0  0  0  0  0  0  0  0  0  0
    6.5117   14.9310   25.7331 C   0  0  0  0  0  0  0  0  0  0  0  0
    5.2147   15.3231   25.4941 C   0  0  0  0  0  0  0  0  0  0  0  0
    4.7379   16.5061   26.0753 O   0  0  0  0  0  0  0  0  0  0  0  0
    4.4012   14.5631   24.6964 C   0  0  0  0  0  0  0  0  0  0  0  0
    2.7550   15.1459   24.4477 Cl  0  0  0  0  0  0  0  0  0  0  0  0
    4.8298   13.3677   24.0892 C   0  0  0  0  0  0  0  0  0  0  0  0
    3.8218   12.6191   23.3567 C   0  0  0  0  0  0  0  0  0  0  0  0
    2.9184   11.7147   24.0807 C   0  0  0  0  0  0  0  0  0  0  0  0
    3.3602   10.6232   24.9020 C   0  0  0  0  0  0  0  0  0  0  0  0
    4.4986   10.2769   25.2663 O   0  0  0  0  0  0  0  0  0  0  0  0
    2.3028    9.7430   25.4169 N   0  0  0  0  0  0  0  0  0  0  0  0
    2.7412    8.6590   26.2292 C   0  0  0  0  0  0  0  0  0  0  0  0
    2.3931    8.4740   27.4704 C   0  0  0  0  0  0  0  0  0  0  0  0
    2.8880    7.3236   28.2537 C   0  0  0  0  0  0  0  0  0  0  0  0
    2.5558    7.1404   29.4515 O   0  0  0  0  0  0  0  0  0  0  0  0
    3.7904    6.3713   27.6159 C   0  0  0  0  0  0  0  0  0  0  0  0
    4.3141    5.2634   28.2468 O   0  0  0  0  0  0  0  0  0  0  0  0
    5.1844    5.2943   29.3448 C   0  0  0  0  0  0  0  0  0  0  0  0
    4.1439    6.5633   26.3469 C   0  0  0  0  0  0  0  0  0  0  0  0
    3.6551    7.7007   25.5716 C   0  0  0  0  0  0  0  0  0  0  0  0
    4.0089    7.8589   24.3618 O   0  0  0  0  0  0  0  0  0  0  0  0
  1  2  1  0
  2  3  1  0
  3  4  2  0
  3  5  1  0
  5  6  2  0
  6  7  1  0
  6  8  1  0
  8  9  2  0
  9 10  1  0
  9 11  1  0
 11 12  1  0
 11 13  2  0
 13 14  1  0
 14 15  1  0
 15 16  1  0
 16 17  2  0
 16 18  1  0
 18 19  1  0
 19 20  2  0
 20 21  1  0
 21 22  2  0
 21 23  1  0
 23 24  1  0
 24 25  1  0
 23 26  2  0
 26 27  1  0
 27 28  2  0
 13  5  1  0
 27 19  1  0
M  END
>  <shape_align_shape_tanimoto>  (3) 
0.70159553631121352

>  <shape_align_color_tanimoto>  (3) 
0.11363196790598423

>  <metric>  (3) 
combo

>  <metric_score>  (3) 
0.408

>  <template_pid>  (3) 
2GFD

>  <template_shape_score>  (3) 
0.702

>  <template_color_score>  (3) 
0.114

>  <template_combo_score>  (3) 
0.408

$$$$
