6DF2_shape_pose
     RDKit          3D

 33 33  0  0  0  0  0  0  0  0999 V2000
  -14.1422   41.3855   14.6825 C   0  0  0  0  0  0  0  0  0  0  0  0
  -13.1953   41.2031   15.8529 C   0  0  0  0  0  0  0  0  0  0  0  0
  -13.7767   42.0572   16.9871 C   0  0  0  0  0  0  0  0  0  0  0  0
  -13.2502   39.7411   16.2371 C   0  0  0  0  0  0  0  0  0  0  0  0
  -12.3493   39.4357   17.3881 C   0  0  2  0  0  0  0  0  0  0  0  0
  -10.9688   39.7005   17.1966 N   0  0  0  0  0  0  0  0  0  0  0  0
  -10.1792   40.5778   18.0016 C   0  0  0  0  0  0  0  0  0  0  0  0
  -10.7697   41.1486   18.9478 O   0  0  0  0  0  0  0  0  0  0  0  0
   -8.7457   40.7572   17.6794 C   0  0  2  0  0  0  0  0  0  0  0  0
   -8.3485   42.1871   17.4823 C   0  0  0  0  0  0  0  0  0  0  0  0
   -8.6041   43.0063   18.6906 C   0  0  0  0  0  0  0  0  0  0  0  0
   -9.7906   43.7242   18.8677 C   0  0  0  0  0  0  0  0  0  0  0  0
  -10.0282   44.4773   19.9987 C   0  0  0  0  0  0  0  0  0  0  0  0
   -9.0921   44.5523   21.0110 C   0  0  0  0  0  0  0  0  0  0  0  0
   -9.3853   45.3167   22.1101 O   0  0  0  0  0  0  0  0  0  0  0  0
   -9.7878   44.7648   23.6546 P   0  0  0  0  0  0  0  0  0  0  0  0
  -10.6679   43.5598   23.6835 O   0  0  0  0  0  0  0  0  0  0  0  0
   -8.3921   44.4319   24.5770 O   0  0  0  0  0  0  0  0  0  0  0  0
  -10.6058   45.9991   24.5119 O   0  0  0  0  0  0  0  0  0  0  0  0
   -7.9203   43.8438   20.8358 C   0  0  0  0  0  0  0  0  0  0  0  0
   -7.6734   43.0863   19.7061 C   0  0  0  0  0  0  0  0  0  0  0  0
   -8.3733   39.9115   16.5610 N   0  0  0  0  0  0  0  0  0  0  0  0
   -7.4144   38.8464   16.6991 C   0  0  0  0  0  0  0  0  0  0  0  0
   -6.9224   38.6934   17.8353 O   0  0  0  0  0  0  0  0  0  0  0  0
   -7.0810   38.0274   15.5322 C   0  0  1  0  0  0  0  0  0  0  0  0
   -7.8107   38.4080   14.3325 N   0  0  0  0  0  0  0  0  0  0  0  0
   -5.5872   37.9960   15.2183 C   0  0  0  0  0  0  0  0  0  0  0  0
   -4.7776   37.4430   16.3472 C   0  0  0  0  0  0  0  0  0  0  0  0
   -5.1703   36.0221   16.6962 C   0  0  0  0  0  0  0  0  0  0  0  0
   -3.3347   37.3616   15.8371 C   0  0  0  0  0  0  0  0  0  0  0  0
  -12.5330   38.0204   17.8183 C   0  0  0  0  0  0  0  0  0  0  0  0
  -13.7018   37.5922   18.0404 O   0  0  0  0  0  0  0  0  0  0  0  0
  -11.4619   37.1548   17.9838 O   0  0  0  0  0  0  0  0  0  0  0  0
  1  2  1  0
  2  3  1  0
  2  4  1  0
  5  4  1  6
  5  6  1  0
  6  7  1  0
  7  8  2  0
  7  9  1  0
  9 10  1  6
 10 11  1  0
 11 12  2  0
 12 13  1  0
 13 14  2  0
 14 15  1  0
 15 16  1  0
 16 17  2  0
 16 18  1  0
 16 19  1  0
 14 20  1  0
 20 21  2  0
  9 22  1  0
 22 23  1  0
 23 24  2  0
 23 25  1  0
 25 26  1  6
 25 27  1  0
 27 28  1  0
 28 29  1  0
 28 30  1  0
  5 31  1  0
 31 32  2  0
 31 33  1  0
 21 11  1  0
M  CHG  1  26   1
M  END
>  <shape_align_shape_tanimoto>  (1) 
0.61411482186178123

>  <shape_align_color_tanimoto>  (1) 
0.023381320849686821

>  <metric>  (1) 
shape

>  <metric_score>  (1) 
0.614

>  <template_pid>  (1) 
6DF2

>  <template_shape_score>  (1) 
0.614

>  <template_color_score>  (1) 
0.023

>  <template_combo_score>  (1) 
0.319

$$$$
6DF2_color_pose
     RDKit          3D

 33 33  0  0  0  0  0  0  0  0999 V2000
   -3.4863   38.7546   14.3377 C   0  0  0  0  0  0  0  0  0  0  0  0
   -4.8863   38.7870   13.7770 C   0  0  0  0  0  0  0  0  0  0  0  0
   -4.7196   38.7016   12.2547 C   0  0  0  0  0  0  0  0  0  0  0  0
   -5.7475   37.6493   14.1932 C   0  0  0  0  0  0  0  0  0  0  0  0
   -5.9974   37.4922   15.6517 C   0  0  2  0  0  0  0  0  0  0  0  0
   -6.6421   38.6986   16.1758 N   0  0  0  0  0  0  0  0  0  0  0  0
   -7.9631   38.6497   16.7009 C   0  0  0  0  0  0  0  0  0  0  0  0
   -8.6372   37.5979   16.7454 O   0  0  0  0  0  0  0  0  0  0  0  0
   -8.5488   39.8975   17.2101 C   0  0  2  0  0  0  0  0  0  0  0  0
   -7.7230   40.5755   18.2785 C   0  0  0  0  0  0  0  0  0  0  0  0
   -8.4946   41.8145   18.6523 C   0  0  0  0  0  0  0  0  0  0  0  0
   -9.4403   41.7742   19.6714 C   0  0  0  0  0  0  0  0  0  0  0  0
  -10.1564   42.9105   20.0228 C   0  0  0  0  0  0  0  0  0  0  0  0
   -9.9390   44.1059   19.3611 C   0  0  0  0  0  0  0  0  0  0  0  0
  -10.6561   45.2428   19.7134 O   0  0  0  0  0  0  0  0  0  0  0  0
  -11.6853   46.0973   18.6693 P   0  0  0  0  0  0  0  0  0  0  0  0
  -11.6758   47.5691   19.0079 O   0  0  0  0  0  0  0  0  0  0  0  0
  -13.2790   45.5511   18.8102 O   0  0  0  0  0  0  0  0  0  0  0  0
  -11.2333   45.9268   17.0462 O   0  0  0  0  0  0  0  0  0  0  0  0
   -8.9975   44.1312   18.3519 C   0  0  0  0  0  0  0  0  0  0  0  0
   -8.2757   43.0121   17.9883 C   0  0  0  0  0  0  0  0  0  0  0  0
   -9.8923   39.7214   17.7178 N   0  0  0  0  0  0  0  0  0  0  0  0
  -11.0101   40.3923   17.2094 C   0  0  0  0  0  0  0  0  0  0  0  0
  -10.8102   41.2017   16.2467 O   0  0  0  0  0  0  0  0  0  0  0  0
  -12.3978   40.2572   17.6774 C   0  0  1  0  0  0  0  0  0  0  0  0
  -13.1956   41.2741   16.9495 N   0  0  0  0  0  0  0  0  0  0  0  0
  -13.0605   38.9635   17.3700 C   0  0  0  0  0  0  0  0  0  0  0  0
  -12.4556   37.7280   17.9182 C   0  0  0  0  0  0  0  0  0  0  0  0
  -12.3733   37.6870   19.4077 C   0  0  0  0  0  0  0  0  0  0  0  0
  -13.3491   36.5637   17.4515 C   0  0  0  0  0  0  0  0  0  0  0  0
   -4.8164   37.1189   16.4500 C   0  0  0  0  0  0  0  0  0  0  0  0
   -4.0847   36.1155   16.1989 O   0  0  0  0  0  0  0  0  0  0  0  0
   -4.4145   37.8690   17.5714 O   0  0  0  0  0  0  0  0  0  0  0  0
  1  2  1  0
  2  3  1  0
  2  4  1  0
  5  4  1  6
  5  6  1  0
  6  7  1  0
  7  8  2  0
  7  9  1  0
  9 10  1  1
 10 11  1  0
 11 12  2  0
 12 13  1  0
 13 14  2  0
 14 15  1  0
 15 16  1  0
 16 17  2  0
 16 18  1  0
 16 19  1  0
 14 20  1  0
 20 21  2  0
  9 22  1  0
 22 23  1  0
 23 24  2  0
 23 25  1  0
 25 26  1  6
 25 27  1  0
 27 28  1  0
 28 29  1  0
 28 30  1  0
  5 31  1  0
 31 32  2  0
 31 33  1  0
 21 11  1  0
M  CHG  1  26   1
M  END
>  <shape_align_shape_tanimoto>  (2) 
0.52041884983006748

>  <shape_align_color_tanimoto>  (2) 
0.11808902088277083

>  <metric>  (2) 
color

>  <metric_score>  (2) 
0.118

>  <template_pid>  (2) 
6DF2

>  <template_shape_score>  (2) 
0.520

>  <template_color_score>  (2) 
0.118

>  <template_combo_score>  (2) 
0.319

$$$$
6DF2_combo_pose
     RDKit          3D

 33 33  0  0  0  0  0  0  0  0999 V2000
  -15.4478   39.3956   19.0573 C   0  0  0  0  0  0  0  0  0  0  0  0
  -15.3382   38.0199   19.6090 C   0  0  0  0  0  0  0  0  0  0  0  0
  -16.7741   37.4442   19.5429 C   0  0  0  0  0  0  0  0  0  0  0  0
  -14.4295   37.0615   18.9859 C   0  0  0  0  0  0  0  0  0  0  0  0
  -12.9800   37.2689   18.8716 C   0  0  2  0  0  0  0  0  0  0  0  0
  -12.5089   38.3987   18.1494 N   0  0  0  0  0  0  0  0  0  0  0  0
  -11.1440   38.6829   17.8473 C   0  0  0  0  0  0  0  0  0  0  0  0
  -10.2645   37.8722   18.2148 O   0  0  0  0  0  0  0  0  0  0  0  0
  -10.8202   39.9196   17.1081 C   0  0  2  0  0  0  0  0  0  0  0  0
   -9.4974   40.4684   17.4467 C   0  0  0  0  0  0  0  0  0  0  0  0
   -8.3166   39.6597   17.1881 C   0  0  0  0  0  0  0  0  0  0  0  0
   -7.7930   39.6995   15.8854 C   0  0  0  0  0  0  0  0  0  0  0  0
   -6.6682   39.0137   15.5165 C   0  0  0  0  0  0  0  0  0  0  0  0
   -5.9950   38.2427   16.4357 C   0  0  0  0  0  0  0  0  0  0  0  0
   -4.8533   37.5646   16.0036 O   0  0  0  0  0  0  0  0  0  0  0  0
   -5.0322   35.9237   15.4998 P   0  0  0  0  0  0  0  0  0  0  0  0
   -3.7641   35.1831   15.8441 O   0  0  0  0  0  0  0  0  0  0  0  0
   -6.2843   35.2488   16.4492 O   0  0  0  0  0  0  0  0  0  0  0  0
   -5.4126   35.8241   13.8566 O   0  0  0  0  0  0  0  0  0  0  0  0
   -6.4811   38.1856   17.7145 C   0  0  0  0  0  0  0  0  0  0  0  0
   -7.6263   38.8860   18.0816 C   0  0  0  0  0  0  0  0  0  0  0  0
  -11.8813   40.8892   17.2933 N   0  0  0  0  0  0  0  0  0  0  0  0
  -12.9048   41.1582   16.3279 C   0  0  0  0  0  0  0  0  0  0  0  0
  -12.8354   40.4776   15.2789 O   0  0  0  0  0  0  0  0  0  0  0  0
  -13.9032   42.1721   16.6540 C   0  0  1  0  0  0  0  0  0  0  0  0
  -13.7427   42.6613   18.0552 N   0  0  0  0  0  0  0  0  0  0  0  0
  -13.9789   43.4129   15.8618 C   0  0  0  0  0  0  0  0  0  0  0  0
  -14.2654   43.4193   14.4243 C   0  0  0  0  0  0  0  0  0  0  0  0
  -13.2985   42.7240   13.5353 C   0  0  0  0  0  0  0  0  0  0  0  0
  -15.7060   43.0250   14.1031 C   0  0  0  0  0  0  0  0  0  0  0  0
  -12.4058   36.0100   18.1452 C   0  0  0  0  0  0  0  0  0  0  0  0
  -11.8340   36.1241   17.0510 O   0  0  0  0  0  0  0  0  0  0  0  0
  -12.5600   34.7721   18.7734 O   0  0  0  0  0  0  0  0  0  0  0  0
  1  2  1  0
  2  3  1  0
  2  4  1  0
  5  4  1  6
  5  6  1  0
  6  7  1  0
  7  8  2  0
  7  9  1  0
  9 10  1  1
 10 11  1  0
 11 12  2  0
 12 13  1  0
 13 14  2  0
 14 15  1  0
 15 16  1  0
 16 17  2  0
 16 18  1  0
 16 19  1  0
 14 20  1  0
 20 21  2  0
  9 22  1  0
 22 23  1  0
 23 24  2  0
 23 25  1  0
 25 26  1  1
 25 27  1  0
 27 28  1  0
 28 29  1  0
 28 30  1  0
  5 31  1  0
 31 32  2  0
 31 33  1  0
 21 11  1  0
M  CHG  1  26   1
M  END
>  <shape_align_shape_tanimoto>  (3) 
0.58442201371846236

>  <shape_align_color_tanimoto>  (3) 
0.073781288644344911

>  <metric>  (3) 
combo

>  <metric_score>  (3) 
0.329

>  <template_pid>  (3) 
6DF2

>  <template_shape_score>  (3) 
0.584

>  <template_color_score>  (3) 
0.074

>  <template_combo_score>  (3) 
0.329

$$$$
