2YHD_shape_pose
     RDKit          3D

 21 24  0  0  0  0  0  0  0  0999 V2000
   30.1435  -50.9820  -40.5901 O   0  0  0  0  0  0  0  0  0  0  0  0
   29.2157  -51.7516  -39.8733 C   0  0  0  0  0  0  0  0  0  0  0  0
   28.9189  -53.0460  -40.2416 C   0  0  0  0  0  0  0  0  0  0  0  0
   27.9937  -53.8188  -39.5299 C   0  0  0  0  0  0  0  0  0  0  0  0
   27.3514  -53.2680  -38.4161 C   0  0  0  0  0  0  0  0  0  0  0  0
   26.3573  -54.0768  -37.6391 C   0  0  0  0  0  0  0  0  0  0  0  0
   25.1865  -53.2826  -37.3536 N   0  0  0  0  0  0  0  0  0  0  0  0
   25.0251  -52.6338  -36.0942 C   0  0  0  0  0  0  0  0  0  0  0  0
   24.0106  -51.7023  -35.9311 C   0  0  0  0  0  0  0  0  0  0  0  0
   23.8748  -51.0871  -34.7005 C   0  0  0  0  0  0  0  0  0  0  0  0
   24.6884  -51.3463  -33.6289 C   0  0  0  0  0  0  0  0  0  0  0  0
   25.7051  -52.2834  -33.8010 C   0  0  0  0  0  0  0  0  0  0  0  0
   26.5379  -52.5629  -32.7391 C   0  0  0  0  0  0  0  0  0  0  0  0
   27.5425  -53.4922  -32.9173 C   0  0  0  0  0  0  0  0  0  0  0  0
   27.7025  -54.1174  -34.1219 C   0  0  0  0  0  0  0  0  0  0  0  0
   26.8573  -53.8254  -35.1789 C   0  0  0  0  0  0  0  0  0  0  0  0
   25.8445  -52.9048  -35.0391 C   0  0  0  0  0  0  0  0  0  0  0  0
   27.0387  -54.4851  -36.4234 N   0  0  0  0  0  0  0  0  0  0  0  0
   27.6604  -51.9719  -38.0621 C   0  0  0  0  0  0  0  0  0  0  0  0
   28.5758  -51.1989  -38.7613 C   0  0  0  0  0  0  0  0  0  0  0  0
   28.8308  -49.9068  -38.3424 O   0  0  0  0  0  0  0  0  0  0  0  0
  1  2  1  0
  2  3  2  0
  3  4  1  0
  4  5  2  0
  5  6  1  0
  6  7  1  0
  7  8  1  0
  8  9  2  0
  9 10  1  0
 10 11  2  0
 11 12  1  0
 12 13  2  0
 13 14  1  0
 14 15  2  0
 15 16  1  0
 16 17  2  0
 16 18  1  0
  5 19  1  0
 19 20  2  0
 20 21  1  0
 20  2  1  0
 18  6  1  0
 17  8  1  0
 17 12  1  0
M  END
>  <shape_align_shape_tanimoto>  (1) 
0.61073530067131532

>  <shape_align_color_tanimoto>  (1) 
0.069044173201302989

>  <metric>  (1) 
shape

>  <metric_score>  (1) 
0.611

>  <template_pid>  (1) 
2YHD

>  <template_shape_score>  (1) 
0.611

>  <template_color_score>  (1) 
0.069

>  <template_combo_score>  (1) 
0.340

$$$$
2YHD_color_pose
     RDKit          3D

 21 24  0  0  0  0  0  0  0  0999 V2000
   29.6358  -55.4551  -40.5750 O   0  0  0  0  0  0  0  0  0  0  0  0
   28.7943  -54.5771  -39.8765 C   0  0  0  0  0  0  0  0  0  0  0  0
   28.1202  -53.6478  -40.6429 C   0  0  0  0  0  0  0  0  0  0  0  0
   27.2668  -52.7447  -40.0085 C   0  0  0  0  0  0  0  0  0  0  0  0
   27.1303  -52.8177  -38.6309 C   0  0  0  0  0  0  0  0  0  0  0  0
   26.2328  -51.8830  -37.8763 C   0  0  0  0  0  0  0  0  0  0  0  0
   25.4450  -52.6144  -36.9032 N   0  0  0  0  0  0  0  0  0  0  0  0
   25.0196  -52.0358  -35.6727 C   0  0  0  0  0  0  0  0  0  0  0  0
   24.0283  -52.6593  -34.9461 C   0  0  0  0  0  0  0  0  0  0  0  0
   23.5997  -52.1163  -33.7499 C   0  0  0  0  0  0  0  0  0  0  0  0
   24.1838  -50.9479  -33.3083 C   0  0  0  0  0  0  0  0  0  0  0  0
   25.1757  -50.3410  -34.0536 C   0  0  0  0  0  0  0  0  0  0  0  0
   25.7555  -49.1656  -33.5983 C   0  0  0  0  0  0  0  0  0  0  0  0
   26.7452  -48.5698  -34.3526 C   0  0  0  0  0  0  0  0  0  0  0  0
   27.1965  -49.0857  -35.5516 C   0  0  0  0  0  0  0  0  0  0  0  0
   26.6106  -50.2575  -35.9944 C   0  0  0  0  0  0  0  0  0  0  0  0
   25.6160  -50.8706  -35.2520 C   0  0  0  0  0  0  0  0  0  0  0  0
   27.0230  -50.8450  -37.2161 N   0  0  0  0  0  0  0  0  0  0  0  0
   27.8118  -53.7549  -37.8704 C   0  0  0  0  0  0  0  0  0  0  0  0
   28.6683  -54.6616  -38.5048 C   0  0  0  0  0  0  0  0  0  0  0  0
   29.3616  -55.6089  -37.7665 O   0  0  0  0  0  0  0  0  0  0  0  0
  1  2  1  0
  2  3  2  0
  3  4  1  0
  4  5  2  0
  5  6  1  0
  6  7  1  0
  7  8  1  0
  8  9  2  0
  9 10  1  0
 10 11  2  0
 11 12  1  0
 12 13  2  0
 13 14  1  0
 14 15  2  0
 15 16  1  0
 16 17  2  0
 16 18  1  0
  5 19  1  0
 19 20  2  0
 20 21  1  0
 20  2  1  0
 18  6  1  0
 17  8  1  0
 17 12  1  0
M  END
>  <shape_align_shape_tanimoto>  (2) 
0.58753315712590737

>  <shape_align_color_tanimoto>  (2) 
0.13178676150911703

>  <metric>  (2) 
color

>  <metric_score>  (2) 
0.132

>  <template_pid>  (2) 
2YHD

>  <template_shape_score>  (2) 
0.588

>  <template_color_score>  (2) 
0.132

>  <template_combo_score>  (2) 
0.360

$$$$
2YHD_combo_pose
     RDKit          3D

 21 24  0  0  0  0  0  0  0  0999 V2000
   24.3395  -47.7784  -35.6981 O   0  0  0  0  0  0  0  0  0  0  0  0
   24.7554  -49.1214  -35.6436 C   0  0  0  0  0  0  0  0  0  0  0  0
   24.4711  -49.9158  -34.5512 C   0  0  0  0  0  0  0  0  0  0  0  0
   24.8986  -51.2485  -34.5265 C   0  0  0  0  0  0  0  0  0  0  0  0
   25.5989  -51.7080  -35.6234 C   0  0  0  0  0  0  0  0  0  0  0  0
   26.1071  -53.1208  -35.7072 C   0  0  0  0  0  0  0  0  0  0  0  0
   25.8298  -53.6924  -37.0135 N   0  0  0  0  0  0  0  0  0  0  0  0
   26.7196  -54.5618  -37.6913 C   0  0  0  0  0  0  0  0  0  0  0  0
   26.2370  -55.2330  -38.7909 C   0  0  0  0  0  0  0  0  0  0  0  0
   27.0579  -56.0927  -39.4901 C   0  0  0  0  0  0  0  0  0  0  0  0
   28.3499  -56.2383  -39.0404 C   0  0  0  0  0  0  0  0  0  0  0  0
   28.8388  -55.5629  -37.9323 C   0  0  0  0  0  0  0  0  0  0  0  0
   30.1360  -55.7359  -37.5153 C   0  0  0  0  0  0  0  0  0  0  0  0
   30.6073  -55.0471  -36.3988 C   0  0  0  0  0  0  0  0  0  0  0  0
   29.7548  -54.1937  -35.7231 C   0  0  0  0  0  0  0  0  0  0  0  0
   28.4410  -53.9985  -36.1199 C   0  0  0  0  0  0  0  0  0  0  0  0
   28.0065  -54.6945  -37.2275 C   0  0  0  0  0  0  0  0  0  0  0  0
   27.5521  -53.1289  -35.4414 N   0  0  0  0  0  0  0  0  0  0  0  0
   25.8765  -50.8865  -36.7202 C   0  0  0  0  0  0  0  0  0  0  0  0
   25.4549  -49.5725  -36.7443 C   0  0  0  0  0  0  0  0  0  0  0  0
   25.7417  -48.7813  -37.8396 O   0  0  0  0  0  0  0  0  0  0  0  0
  1  2  1  0
  2  3  2  0
  3  4  1  0
  4  5  2  0
  5  6  1  0
  6  7  1  0
  7  8  1  0
  8  9  2  0
  9 10  1  0
 10 11  2  0
 11 12  1  0
 12 13  2  0
 13 14  1  0
 14 15  2  0
 15 16  1  0
 16 17  2  0
 16 18  1  0
  5 19  1  0
 19 20  2  0
 20 21  1  0
 20  2  1  0
 18  6  1  0
 17  8  1  0
 17 12  1  0
M  END
>  <shape_align_shape_tanimoto>  (3) 
0.59893676540500507

>  <shape_align_color_tanimoto>  (3) 
0.1215738391768276

>  <metric>  (3) 
combo

>  <metric_score>  (3) 
0.360

>  <template_pid>  (3) 
2YHD

>  <template_shape_score>  (3) 
0.599

>  <template_color_score>  (3) 
0.122

>  <template_combo_score>  (3) 
0.360

$$$$
