2OW2_shape_pose
     RDKit          3D

 19 19  0  0  0  0  0  0  0  0999 V2000
    2.4232   48.1460   59.0806 C   0  0  0  0  0  0  0  0  0  0  0  0
    2.0747   47.3720   57.9239 O   0  0  0  0  0  0  0  0  0  0  0  0
    2.4449   47.8413   56.6710 C   0  0  0  0  0  0  0  0  0  0  0  0
    3.1349   49.0271   56.5148 C   0  0  0  0  0  0  0  0  0  0  0  0
    3.4925   49.4731   55.2531 C   0  0  0  0  0  0  0  0  0  0  0  0
    3.1602   48.7290   54.1143 C   0  0  0  0  0  0  0  0  0  0  0  0
    3.6824   49.3571   52.5868 S   0  0  0  0  0  0  0  0  0  0  0  0
    3.8040   48.1907   51.6249 O   0  0  0  0  0  0  0  0  0  0  0  0
    5.1050   49.8796   52.7655 O   0  0  0  0  0  0  0  0  0  0  0  0
    2.6924   50.6206   51.9040 C   0  0  2  0  0  0  0  0  0  0  0  0
    1.3190   50.2408   51.4800 C   0  0  0  0  0  0  0  0  0  0  0  0
    0.4200   49.7200   52.4956 C   0  0  0  0  0  0  0  0  0  0  0  0
    0.0279   48.5311   52.5932 O   0  0  0  0  0  0  0  0  0  0  0  0
   -0.0765   50.6011   53.4754 O   0  0  0  0  0  0  0  0  0  0  0  0
    3.4104   51.3014   50.7230 C   0  0  0  0  0  0  0  0  0  0  0  0
    4.5920   51.8708   51.0891 F   0  0  0  0  0  0  0  0  0  0  0  0
    2.5869   52.2611   50.1666 F   0  0  0  0  0  0  0  0  0  0  0  0
    2.4752   47.5568   54.3040 C   0  0  0  0  0  0  0  0  0  0  0  0
    2.1048   47.0875   55.5623 C   0  0  0  0  0  0  0  0  0  0  0  0
  1  2  1  0
  2  3  1  0
  3  4  2  0
  4  5  1  0
  5  6  2  0
  6  7  1  0
  7  8  2  0
  7  9  2  0
  7 10  1  0
 10 11  1  6
 11 12  1  0
 12 13  2  0
 12 14  1  0
 10 15  1  0
 15 16  1  0
 15 17  1  0
  6 18  1  0
 18 19  2  0
 19  3  1  0
M  CHG  1  14  -1
M  END
>  <shape_align_shape_tanimoto>  (1) 
0.56430304454383229

>  <shape_align_color_tanimoto>  (1) 
0.053845604158264407

>  <metric>  (1) 
shape

>  <metric_score>  (1) 
0.564

>  <template_pid>  (1) 
2OW2

>  <template_shape_score>  (1) 
0.564

>  <template_color_score>  (1) 
0.054

>  <template_combo_score>  (1) 
0.309

$$$$
2OW2_color_pose
     RDKit          3D

 19 19  0  0  0  0  0  0  0  0999 V2000
    3.7047   46.4920   57.6079 C   0  0  0  0  0  0  0  0  0  0  0  0
    3.3684   47.8115   57.3157 O   0  0  0  0  0  0  0  0  0  0  0  0
    2.7696   48.2708   56.1564 C   0  0  0  0  0  0  0  0  0  0  0  0
    2.4152   47.4537   55.1020 C   0  0  0  0  0  0  0  0  0  0  0  0
    1.8188   47.9940   53.9753 C   0  0  0  0  0  0  0  0  0  0  0  0
    1.5708   49.3693   53.8959 C   0  0  0  0  0  0  0  0  0  0  0  0
    0.8182   49.9689   52.4465 S   0  0  0  0  0  0  0  0  0  0  0  0
   -0.0360   48.8833   51.8605 O   0  0  0  0  0  0  0  0  0  0  0  0
   -0.0459   51.1534   52.6938 O   0  0  0  0  0  0  0  0  0  0  0  0
    2.0958   50.4186   51.2319 C   0  0  2  0  0  0  0  0  0  0  0  0
    2.8590   51.5215   51.8652 C   0  0  0  0  0  0  0  0  0  0  0  0
    3.9819   52.0902   51.1351 C   0  0  0  0  0  0  0  0  0  0  0  0
    4.4398   51.7441   50.0406 O   0  0  0  0  0  0  0  0  0  0  0  0
    4.6424   53.1838   51.7519 O   0  0  0  0  0  0  0  0  0  0  0  0
    1.3930   50.8123   49.9390 C   0  0  0  0  0  0  0  0  0  0  0  0
    2.2583   51.1676   48.9391 F   0  0  0  0  0  0  0  0  0  0  0  0
    0.6421   49.7604   49.4584 F   0  0  0  0  0  0  0  0  0  0  0  0
    1.9256   50.2029   54.9569 C   0  0  0  0  0  0  0  0  0  0  0  0
    2.5259   49.6396   56.0844 C   0  0  0  0  0  0  0  0  0  0  0  0
  1  2  1  0
  2  3  1  0
  3  4  2  0
  4  5  1  0
  5  6  2  0
  6  7  1  0
  7  8  2  0
  7  9  2  0
  7 10  1  0
 10 11  1  1
 11 12  1  0
 12 13  2  0
 12 14  1  0
 10 15  1  0
 15 16  1  0
 15 17  1  0
  6 18  1  0
 18 19  2  0
 19  3  1  0
M  CHG  1  14  -1
M  END
>  <shape_align_shape_tanimoto>  (2) 
0.45028272872376651

>  <shape_align_color_tanimoto>  (2) 
0.13371045164426479

>  <metric>  (2) 
color

>  <metric_score>  (2) 
0.134

>  <template_pid>  (2) 
2OW2

>  <template_shape_score>  (2) 
0.450

>  <template_color_score>  (2) 
0.134

>  <template_combo_score>  (2) 
0.292

$$$$
2OW2_combo_pose
     RDKit          3D

 19 19  0  0  0  0  0  0  0  0999 V2000
    2.4232   48.1460   59.0806 C   0  0  0  0  0  0  0  0  0  0  0  0
    2.0747   47.3720   57.9239 O   0  0  0  0  0  0  0  0  0  0  0  0
    2.4449   47.8413   56.6710 C   0  0  0  0  0  0  0  0  0  0  0  0
    3.1349   49.0271   56.5148 C   0  0  0  0  0  0  0  0  0  0  0  0
    3.4925   49.4731   55.2531 C   0  0  0  0  0  0  0  0  0  0  0  0
    3.1602   48.7290   54.1143 C   0  0  0  0  0  0  0  0  0  0  0  0
    3.6824   49.3571   52.5868 S   0  0  0  0  0  0  0  0  0  0  0  0
    3.8040   48.1907   51.6249 O   0  0  0  0  0  0  0  0  0  0  0  0
    5.1050   49.8796   52.7655 O   0  0  0  0  0  0  0  0  0  0  0  0
    2.6924   50.6206   51.9040 C   0  0  2  0  0  0  0  0  0  0  0  0
    1.3190   50.2408   51.4800 C   0  0  0  0  0  0  0  0  0  0  0  0
    0.4200   49.7200   52.4956 C   0  0  0  0  0  0  0  0  0  0  0  0
    0.0279   48.5311   52.5932 O   0  0  0  0  0  0  0  0  0  0  0  0
   -0.0765   50.6011   53.4754 O   0  0  0  0  0  0  0  0  0  0  0  0
    3.4104   51.3014   50.7230 C   0  0  0  0  0  0  0  0  0  0  0  0
    4.5920   51.8708   51.0891 F   0  0  0  0  0  0  0  0  0  0  0  0
    2.5869   52.2611   50.1666 F   0  0  0  0  0  0  0  0  0  0  0  0
    2.4752   47.5568   54.3040 C   0  0  0  0  0  0  0  0  0  0  0  0
    2.1048   47.0875   55.5623 C   0  0  0  0  0  0  0  0  0  0  0  0
  1  2  1  0
  2  3  1  0
  3  4  2  0
  4  5  1  0
  5  6  2  0
  6  7  1  0
  7  8  2  0
  7  9  2  0
  7 10  1  0
 10 11  1  6
 11 12  1  0
 12 13  2  0
 12 14  1  0
 10 15  1  0
 15 16  1  0
 15 17  1  0
  6 18  1  0
 18 19  2  0
 19  3  1  0
M  CHG  1  14  -1
M  END
>  <shape_align_shape_tanimoto>  (3) 
0.56430304454383229

>  <shape_align_color_tanimoto>  (3) 
0.053845604158264407

>  <metric>  (3) 
combo

>  <metric_score>  (3) 
0.309

>  <template_pid>  (3) 
2OW2

>  <template_shape_score>  (3) 
0.564

>  <template_color_score>  (3) 
0.054

>  <template_combo_score>  (3) 
0.309

$$$$
