6QTR_shape_pose
     RDKit          3D

 94 96  0  0  0  0  0  0  0  0999 V2000
   -0.6548  -31.3806    3.8628 C   0  0  0  0  0  0  0  0  0  0  0  0
   -0.0045  -31.1775    2.5122 C   0  0  0  0  0  0  0  0  0  0  0  0
   -0.3463  -32.3884    1.6513 C   0  0  2  0  0  0  0  0  0  0  0  0
    0.2527  -33.5724    2.4259 C   0  0  0  0  0  0  0  0  0  0  0  0
    0.2727  -32.2738    0.2923 C   0  0  2  0  0  0  0  0  0  0  0  0
   -0.2069  -31.0434   -0.3880 N   0  0  0  0  0  0  0  0  0  0  0  0
   -1.5693  -30.8514   -0.6859 C   0  0  0  0  0  0  0  0  0  0  0  0
   -2.3583  -31.7891   -0.3299 O   0  0  0  0  0  0  0  0  0  0  0  0
   -2.1850  -29.7081   -1.3615 C   0  0  1  0  0  0  0  0  0  0  0  0
   -3.5835  -30.0330   -1.7260 N   0  0  0  0  0  0  0  0  0  0  0  0
   -2.1914  -28.4102   -0.6506 C   0  0  0  0  0  0  0  0  0  0  0  0
   -0.8610  -27.8273   -0.3009 C   0  0  0  0  0  0  0  0  0  0  0  0
   -1.1205  -26.5088    0.3772 C   0  0  0  0  0  0  0  0  0  0  0  0
   -1.5503  -26.4584    1.5523 O   0  0  0  0  0  0  0  0  0  0  0  0
   -0.8497  -25.3605   -0.3836 O   0  0  0  0  0  0  0  0  0  0  0  0
    0.0217  -33.4098   -0.6226 C   0  0  0  0  0  0  0  0  0  0  0  0
   -0.5847  -33.0975   -1.7159 O   0  0  0  0  0  0  0  0  0  0  0  0
    0.3559  -34.7560   -0.4513 N   0  0  0  0  0  0  0  0  0  0  0  0
   -0.0298  -35.6887   -1.5852 C   0  0  1  0  0  0  0  0  0  0  0  0
   -1.3952  -36.1153   -1.4548 C   0  0  0  0  0  0  0  0  0  0  0  0
   -1.9408  -37.1178   -2.3837 C   0  0  0  0  0  0  0  0  0  0  0  0
   -2.0772  -36.9259   -3.8307 C   0  0  0  0  0  0  0  0  0  0  0  0
   -2.9452  -35.8258   -4.2316 N   0  0  0  0  0  0  0  0  0  0  0  0
   -3.1146  -35.6028   -5.6195 C   0  0  0  0  0  0  0  0  0  0  0  0
   -3.9616  -34.5274   -6.0004 N   0  0  0  0  0  0  0  0  0  0  0  0
   -2.5402  -36.3234   -6.5311 N   0  0  0  0  0  0  0  0  0  0  0  0
    0.3343  -34.8317   -2.7676 C   0  0  0  0  0  0  0  0  0  0  0  0
   -0.2714  -34.6531   -3.8036 O   0  0  0  0  0  0  0  0  0  0  0  0
    1.5910  -34.1361   -2.6209 N   0  0  0  0  0  0  0  0  0  0  0  0
    2.0706  -33.2015   -3.6645 C   0  0  1  0  0  0  0  0  0  0  0  0
    2.9702  -32.2959   -2.8968 C   0  0  0  0  0  0  0  0  0  0  0  0
    3.7886  -31.2457   -3.5117 C   0  0  0  0  0  0  0  0  0  0  0  0
    4.9088  -31.7019   -4.3797 C   0  0  0  0  0  0  0  0  0  0  0  0
    5.8058  -32.5970   -3.6044 N   0  0  0  0  0  0  0  0  0  0  0  0
    6.9352  -33.1702   -4.2647 C   0  0  0  0  0  0  0  0  0  0  0  0
    7.8026  -34.0202   -3.5189 N   0  0  0  0  0  0  0  0  0  0  0  0
    7.2201  -32.9537   -5.5002 N   0  0  0  0  0  0  0  0  0  0  0  0
    2.7187  -33.7999   -4.8211 C   0  0  0  0  0  0  0  0  0  0  0  0
    3.3686  -34.8858   -4.8186 O   0  0  0  0  0  0  0  0  0  0  0  0
    2.5710  -33.0499   -6.0695 N   0  0  0  0  0  0  0  0  0  0  0  0
    3.1359  -33.4220   -7.3116 C   0  0  2  0  0  0  0  0  0  0  0  0
    3.4955  -32.3072   -8.2174 C   0  0  0  0  0  0  0  0  0  0  0  0
    4.4302  -32.6106   -9.0608 O   0  0  0  0  0  0  0  0  0  0  0  0
    2.9637  -31.0153   -8.2763 N   0  0  0  0  0  0  0  0  0  0  0  0
    1.8690  -30.3560   -7.5932 C   0  0  0  0  0  0  0  0  0  0  0  0
    1.4080  -29.1955   -8.4665 C   0  0  0  0  0  0  0  0  0  0  0  0
    2.2538  -29.2990   -9.7161 C   0  0  0  0  0  0  0  0  0  0  0  0
    3.5060  -29.9555   -9.1579 C   0  0  1  0  0  0  0  0  0  0  0  0
    4.2336  -28.9140   -8.4105 C   0  0  0  0  0  0  0  0  0  0  0  0
    4.4870  -27.8359   -9.0063 O   0  0  0  0  0  0  0  0  0  0  0  0
    4.6695  -29.0373   -7.0734 N   0  0  0  0  0  0  0  0  0  0  0  0
    5.3958  -27.9708   -6.3610 C   0  0  1  0  0  0  0  0  0  0  0  0
    4.9622  -27.7425   -5.0109 C   0  0  0  0  0  0  0  0  0  0  0  0
    5.7245  -26.6928   -4.2532 C   0  0  0  0  0  0  0  0  0  0  0  0
    5.0515  -26.5538   -2.8994 C   0  0  0  0  0  0  0  0  0  0  0  0
    5.5164  -25.7906   -2.0179 O   0  0  0  0  0  0  0  0  0  0  0  0
    3.9028  -27.2662   -2.5976 O   0  0  0  0  0  0  0  0  0  0  0  0
    6.7732  -28.0786   -6.8071 C   0  0  0  0  0  0  0  0  0  0  0  0
    6.9633  -29.0821   -7.6308 O   0  0  0  0  0  0  0  0  0  0  0  0
    7.9047  -27.3183   -6.5362 N   0  0  0  0  0  0  0  0  0  0  0  0
    9.1466  -27.6313   -7.1718 C   0  0  1  0  0  0  0  0  0  0  0  0
    9.6515  -28.9995   -7.2714 C   0  0  0  0  0  0  0  0  0  0  0  0
    9.9456  -29.6492   -5.9647 C   0  0  0  0  0  0  0  0  0  0  0  0
   11.2902  -29.6389   -5.5368 C   0  0  0  0  0  0  0  0  0  0  0  0
   11.6748  -30.1673   -4.3360 C   0  0  0  0  0  0  0  0  0  0  0  0
   10.7323  -30.7245   -3.5180 C   0  0  0  0  0  0  0  0  0  0  0  0
    9.4307  -30.7474   -3.9083 C   0  0  0  0  0  0  0  0  0  0  0  0
    9.0179  -30.2113   -5.1366 C   0  0  0  0  0  0  0  0  0  0  0  0
    9.3463  -26.8417   -8.4117 C   0  0  0  0  0  0  0  0  0  0  0  0
   10.1279  -27.1542   -9.3361 O   0  0  0  0  0  0  0  0  0  0  0  0
    8.5466  -25.6359   -8.4795 N   0  0  0  0  0  0  0  0  0  0  0  0
    8.5418  -24.7262   -9.5707 C   0  0  0  0  0  0  0  0  0  0  0  0
    7.7679  -23.4888   -9.3952 C   0  0  0  0  0  0  0  0  0  0  0  0
    7.7011  -22.7135  -10.4084 O   0  0  0  0  0  0  0  0  0  0  0  0
    7.1105  -23.0988   -8.1964 N   0  0  0  0  0  0  0  0  0  0  0  0
    6.4079  -21.8599   -8.1763 C   0  0  0  0  0  0  0  0  0  0  0  0
    5.2728  -21.8921   -9.1077 C   0  0  0  0  0  0  0  0  0  0  0  0
    4.6083  -20.8188   -9.2537 O   0  0  0  0  0  0  0  0  0  0  0  0
    4.8360  -23.0066   -9.8579 N   0  0  0  0  0  0  0  0  0  0  0  0
    3.6863  -22.7947  -10.7245 C   0  0  1  0  0  0  0  0  0  0  0  0
    3.5387  -23.7670  -11.8271 C   0  0  0  0  0  0  0  0  0  0  0  0
    4.6712  -23.8538  -12.7710 C   0  0  0  0  0  0  0  0  0  0  0  0
    5.6533  -24.8000  -12.4506 C   0  0  0  0  0  0  0  0  0  0  0  0
    6.7688  -24.9901  -13.2431 C   0  0  0  0  0  0  0  0  0  0  0  0
    6.8651  -24.1977  -14.3686 C   0  0  0  0  0  0  0  0  0  0  0  0
    7.9927  -24.3761  -15.1923 O   0  0  0  0  0  0  0  0  0  0  0  0
    5.9240  -23.2573  -14.7195 C   0  0  0  0  0  0  0  0  0  0  0  0
    4.8026  -23.0809  -13.9035 C   0  0  0  0  0  0  0  0  0  0  0  0
    2.4551  -23.0101   -9.8342 C   0  0  0  0  0  0  0  0  0  0  0  0
    2.1922  -22.0972   -9.0005 O   0  0  0  0  0  0  0  0  0  0  0  0
    1.6871  -24.1553   -9.9580 O   0  0  0  0  0  0  0  0  0  0  0  0
    2.1085  -34.2356   -8.1453 C   0  0  0  0  0  0  0  0  0  0  0  0
    2.8027  -34.5966   -9.4258 C   0  0  0  0  0  0  0  0  0  0  0  0
    1.6009  -35.4296   -7.4176 C   0  0  0  0  0  0  0  0  0  0  0  0
  1  2  1  0
  2  3  1  0
  3  4  1  1
  3  5  1  0
  5  6  1  6
  6  7  1  0
  7  8  2  0
  7  9  1  0
  9 10  1  1
  9 11  1  0
 11 12  1  0
 12 13  1  0
 13 14  2  0
 13 15  1  0
  5 16  1  0
 16 17  2  0
 16 18  1  0
 18 19  1  0
 19 20  1  6
 20 21  1  0
 21 22  1  0
 22 23  1  0
 23 24  1  0
 24 25  1  0
 24 26  2  0
 19 27  1  0
 27 28  2  0
 27 29  1  0
 29 30  1  0
 30 31  1  1
 31 32  1  0
 32 33  1  0
 33 34  1  0
 34 35  1  0
 35 36  1  0
 35 37  2  0
 30 38  1  0
 38 39  2  0
 38 40  1  0
 41 40  1  1
 41 42  1  0
 42 43  2  0
 42 44  1  0
 44 45  1  0
 45 46  1  0
 46 47  1  0
 47 48  1  0
 48 49  1  1
 49 50  2  0
 49 51  1  0
 51 52  1  0
 52 53  1  1
 53 54  1  0
 54 55  1  0
 55 56  2  0
 55 57  1  0
 52 58  1  0
 58 59  2  0
 58 60  1  0
 60 61  1  0
 61 62  1  6
 62 63  1  0
 63 64  2  0
 64 65  1  0
 65 66  2  0
 66 67  1  0
 67 68  2  0
 61 69  1  0
 69 70  2  0
 69 71  1  0
 71 72  1  0
 72 73  1  0
 73 74  2  0
 73 75  1  0
 75 76  1  0
 76 77  1  0
 77 78  2  0
 77 79  1  0
 79 80  1  0
 80 81  1  6
 81 82  1  0
 82 83  2  0
 83 84  1  0
 84 85  2  0
 85 86  1  0
 85 87  1  0
 87 88  2  0
 80 89  1  0
 89 90  2  0
 89 91  1  0
 41 92  1  0
 92 93  1  0
 92 94  1  0
 48 44  1  0
 68 63  1  0
 88 82  1  0
M  CHG  6  10   1  15  -1  26   1  37   1  57  -1  91  -1
M  END
>  <shape_align_shape_tanimoto>  (1) 
0.30338405687552245

>  <shape_align_color_tanimoto>  (1) 
0.0096562720394007574

>  <metric>  (1) 
shape

>  <metric_score>  (1) 
0.303

>  <template_pid>  (1) 
6QTR

>  <template_shape_score>  (1) 
0.303

>  <template_color_score>  (1) 
0.010

>  <template_combo_score>  (1) 
0.157

$$$$
6QTR_color_pose
     RDKit          3D

 94 96  0  0  0  0  0  0  0  0999 V2000
    9.7562  -23.8918   -6.8443 C   0  0  0  0  0  0  0  0  0  0  0  0
    8.7652  -25.0029   -7.1318 C   0  0  0  0  0  0  0  0  0  0  0  0
    9.5027  -26.3110   -7.2555 C   0  0  2  0  0  0  0  0  0  0  0  0
   10.5147  -26.3035   -8.3520 C   0  0  0  0  0  0  0  0  0  0  0  0
    8.5375  -27.5031   -7.4013 C   0  0  2  0  0  0  0  0  0  0  0  0
    9.4581  -28.6567   -7.5033 N   0  0  0  0  0  0  0  0  0  0  0  0
    9.4527  -29.5072   -6.3557 C   0  0  0  0  0  0  0  0  0  0  0  0
    8.7442  -29.3039   -5.3421 O   0  0  0  0  0  0  0  0  0  0  0  0
   10.3345  -30.7479   -6.3012 C   0  0  1  0  0  0  0  0  0  0  0  0
   10.1947  -31.3001   -4.9599 N   0  0  0  0  0  0  0  0  0  0  0  0
    9.8526  -31.7374   -7.3009 C   0  0  0  0  0  0  0  0  0  0  0  0
   10.6084  -33.0161   -7.4156 C   0  0  0  0  0  0  0  0  0  0  0  0
   10.6662  -33.8780   -6.2337 C   0  0  0  0  0  0  0  0  0  0  0  0
   11.6230  -33.9715   -5.4306 O   0  0  0  0  0  0  0  0  0  0  0  0
    9.5341  -34.6801   -5.9756 O   0  0  0  0  0  0  0  0  0  0  0  0
    7.7061  -27.3646   -8.5983 C   0  0  0  0  0  0  0  0  0  0  0  0
    8.1314  -27.8531   -9.6785 O   0  0  0  0  0  0  0  0  0  0  0  0
    6.4304  -26.6897   -8.5219 N   0  0  0  0  0  0  0  0  0  0  0  0
    5.5934  -26.5332   -9.6954 C   0  0  1  0  0  0  0  0  0  0  0  0
    5.2273  -27.7916  -10.4112 C   0  0  0  0  0  0  0  0  0  0  0  0
    4.4642  -27.3492  -11.6692 C   0  0  0  0  0  0  0  0  0  0  0  0
    3.9743  -28.5409  -12.4648 C   0  0  0  0  0  0  0  0  0  0  0  0
    3.2697  -28.0370  -13.6272 N   0  0  0  0  0  0  0  0  0  0  0  0
    2.7091  -28.9711  -14.5489 C   0  0  0  0  0  0  0  0  0  0  0  0
    2.0247  -28.4666  -15.6862 N   0  0  0  0  0  0  0  0  0  0  0  0
    2.8033  -30.2410  -14.3885 N   0  0  0  0  0  0  0  0  0  0  0  0
    4.3827  -25.8587   -9.1774 C   0  0  0  0  0  0  0  0  0  0  0  0
    4.4971  -24.7527   -8.5838 O   0  0  0  0  0  0  0  0  0  0  0  0
    3.0671  -26.3857   -9.2875 N   0  0  0  0  0  0  0  0  0  0  0  0
    1.8629  -25.7679   -8.7921 C   0  0  1  0  0  0  0  0  0  0  0  0
    0.7048  -25.7313   -9.6900 C   0  0  0  0  0  0  0  0  0  0  0  0
    0.9222  -24.9799  -10.9847 C   0  0  0  0  0  0  0  0  0  0  0  0
    1.2838  -23.5299  -10.7403 C   0  0  0  0  0  0  0  0  0  0  0  0
    1.4595  -22.9113  -12.0400 N   0  0  0  0  0  0  0  0  0  0  0  0
    1.7987  -21.5128  -12.0906 C   0  0  0  0  0  0  0  0  0  0  0  0
    1.9811  -20.8424  -13.3315 N   0  0  0  0  0  0  0  0  0  0  0  0
    1.9354  -20.8583  -10.9673 N   0  0  0  0  0  0  0  0  0  0  0  0
    1.4447  -26.4046   -7.4824 C   0  0  0  0  0  0  0  0  0  0  0  0
    2.2183  -27.1903   -6.8792 O   0  0  0  0  0  0  0  0  0  0  0  0
    0.1885  -26.1561   -6.8848 N   0  0  0  0  0  0  0  0  0  0  0  0
   -0.1812  -26.7954   -5.5706 C   0  0  2  0  0  0  0  0  0  0  0  0
   -1.0652  -27.9107   -5.8290 C   0  0  0  0  0  0  0  0  0  0  0  0
   -1.3805  -28.0190   -7.1182 O   0  0  0  0  0  0  0  0  0  0  0  0
   -1.6687  -28.9080   -5.0673 N   0  0  0  0  0  0  0  0  0  0  0  0
   -2.5232  -29.9302   -5.7870 C   0  0  0  0  0  0  0  0  0  0  0  0
   -3.7647  -29.7518   -4.9409 C   0  0  0  0  0  0  0  0  0  0  0  0
   -3.1758  -29.9475   -3.5636 C   0  0  0  0  0  0  0  0  0  0  0  0
   -1.7814  -29.3412   -3.7160 C   0  0  1  0  0  0  0  0  0  0  0  0
   -0.7697  -30.2362   -3.1653 C   0  0  0  0  0  0  0  0  0  0  0  0
    0.2489  -29.6781   -2.6198 O   0  0  0  0  0  0  0  0  0  0  0  0
   -0.8014  -31.6550   -3.1676 N   0  0  0  0  0  0  0  0  0  0  0  0
    0.2889  -32.4525   -2.5402 C   0  0  1  0  0  0  0  0  0  0  0  0
   -0.2850  -33.1936   -1.3674 C   0  0  0  0  0  0  0  0  0  0  0  0
    0.6307  -34.0953   -0.6116 C   0  0  0  0  0  0  0  0  0  0  0  0
    1.1125  -35.2844   -1.3427 C   0  0  0  0  0  0  0  0  0  0  0  0
    2.1994  -35.8641   -0.9973 O   0  0  0  0  0  0  0  0  0  0  0  0
    0.4061  -35.8326   -2.4381 O   0  0  0  0  0  0  0  0  0  0  0  0
    1.1121  -33.1869   -3.4615 C   0  0  0  0  0  0  0  0  0  0  0  0
    2.2621  -33.5866   -3.0488 O   0  0  0  0  0  0  0  0  0  0  0  0
    0.7767  -33.5177   -4.8016 N   0  0  0  0  0  0  0  0  0  0  0  0
    1.8204  -34.2665   -5.5495 C   0  0  1  0  0  0  0  0  0  0  0  0
    1.2216  -35.4200   -6.2624 C   0  0  0  0  0  0  0  0  0  0  0  0
    2.2498  -36.1683   -7.0114 C   0  0  0  0  0  0  0  0  0  0  0  0
    2.4855  -35.8294   -8.3523 C   0  0  0  0  0  0  0  0  0  0  0  0
    3.4465  -36.5456   -9.0528 C   0  0  0  0  0  0  0  0  0  0  0  0
    4.1320  -37.5555   -8.4169 C   0  0  0  0  0  0  0  0  0  0  0  0
    3.9219  -37.9058   -7.1104 C   0  0  0  0  0  0  0  0  0  0  0  0
    2.9651  -37.1944   -6.4099 C   0  0  0  0  0  0  0  0  0  0  0  0
    2.3076  -33.2605   -6.4959 C   0  0  0  0  0  0  0  0  0  0  0  0
    1.5298  -32.2683   -6.7160 O   0  0  0  0  0  0  0  0  0  0  0  0
    3.5614  -33.2755   -7.1824 N   0  0  0  0  0  0  0  0  0  0  0  0
    3.7295  -32.0818   -8.0459 C   0  0  0  0  0  0  0  0  0  0  0  0
    3.6778  -30.9254   -7.1478 C   0  0  0  0  0  0  0  0  0  0  0  0
    3.6696  -29.7767   -7.6691 O   0  0  0  0  0  0  0  0  0  0  0  0
    3.6346  -30.9655   -5.7251 N   0  0  0  0  0  0  0  0  0  0  0  0
    3.5300  -29.8137   -4.9257 C   0  0  0  0  0  0  0  0  0  0  0  0
    4.5120  -28.7404   -5.0076 C   0  0  0  0  0  0  0  0  0  0  0  0
    5.4961  -28.7925   -5.7955 O   0  0  0  0  0  0  0  0  0  0  0  0
    4.2846  -27.6209   -4.1355 N   0  0  0  0  0  0  0  0  0  0  0  0
    5.1350  -26.4518   -4.0760 C   0  0  1  0  0  0  0  0  0  0  0  0
    4.3750  -25.1802   -4.1523 C   0  0  0  0  0  0  0  0  0  0  0  0
    5.2485  -24.0061   -4.0945 C   0  0  0  0  0  0  0  0  0  0  0  0
    5.8780  -23.6033   -5.2534 C   0  0  0  0  0  0  0  0  0  0  0  0
    6.6987  -22.4981   -5.3274 C   0  0  0  0  0  0  0  0  0  0  0  0
    6.9181  -21.7410   -4.2022 C   0  0  0  0  0  0  0  0  0  0  0  0
    7.7313  -20.6171   -4.1944 O   0  0  0  0  0  0  0  0  0  0  0  0
    6.3063  -22.1068   -3.0196 C   0  0  0  0  0  0  0  0  0  0  0  0
    5.4770  -23.2339   -2.9748 C   0  0  0  0  0  0  0  0  0  0  0  0
    5.9313  -26.5398   -2.8449 C   0  0  0  0  0  0  0  0  0  0  0  0
    5.8418  -25.8605   -1.8175 O   0  0  0  0  0  0  0  0  0  0  0  0
    6.9378  -27.5381   -2.8329 O   0  0  0  0  0  0  0  0  0  0  0  0
   -0.7945  -25.6405   -4.8391 C   0  0  0  0  0  0  0  0  0  0  0  0
   -1.2718  -25.8486   -3.4572 C   0  0  0  0  0  0  0  0  0  0  0  0
   -1.8539  -24.9450   -5.6966 C   0  0  0  0  0  0  0  0  0  0  0  0
  1  2  1  0
  2  3  1  0
  3  4  1  6
  3  5  1  0
  5  6  1  6
  6  7  1  0
  7  8  2  0
  7  9  1  0
  9 10  1  1
  9 11  1  0
 11 12  1  0
 12 13  1  0
 13 14  2  0
 13 15  1  0
  5 16  1  0
 16 17  2  0
 16 18  1  0
 18 19  1  0
 19 20  1  1
 20 21  1  0
 21 22  1  0
 22 23  1  0
 23 24  1  0
 24 25  1  0
 24 26  2  0
 19 27  1  0
 27 28  2  0
 27 29  1  0
 29 30  1  0
 30 31  1  6
 31 32  1  0
 32 33  1  0
 33 34  1  0
 34 35  1  0
 35 36  1  0
 35 37  2  0
 30 38  1  0
 38 39  2  0
 38 40  1  0
 41 40  1  6
 41 42  1  0
 42 43  2  0
 42 44  1  0
 44 45  1  0
 45 46  1  0
 46 47  1  0
 47 48  1  0
 48 49  1  6
 49 50  2  0
 49 51  1  0
 51 52  1  0
 52 53  1  1
 53 54  1  0
 54 55  1  0
 55 56  2  0
 55 57  1  0
 52 58  1  0
 58 59  2  0
 58 60  1  0
 60 61  1  0
 61 62  1  6
 62 63  1  0
 63 64  2  0
 64 65  1  0
 65 66  2  0
 66 67  1  0
 67 68  2  0
 61 69  1  0
 69 70  2  0
 69 71  1  0
 71 72  1  0
 72 73  1  0
 73 74  2  0
 73 75  1  0
 75 76  1  0
 76 77  1  0
 77 78  2  0
 77 79  1  0
 79 80  1  0
 80 81  1  1
 81 82  1  0
 82 83  2  0
 83 84  1  0
 84 85  2  0
 85 86  1  0
 85 87  1  0
 87 88  2  0
 80 89  1  0
 89 90  2  0
 89 91  1  0
 41 92  1  0
 92 93  1  0
 92 94  1  0
 48 44  1  0
 68 63  1  0
 88 82  1  0
M  CHG  6  10   1  15  -1  26   1  37   1  57  -1  91  -1
M  END
>  <shape_align_shape_tanimoto>  (2) 
0.2718628553530647

>  <shape_align_color_tanimoto>  (2) 
0.034124810128669747

>  <metric>  (2) 
color

>  <metric_score>  (2) 
0.034

>  <template_pid>  (2) 
6QTR

>  <template_shape_score>  (2) 
0.272

>  <template_color_score>  (2) 
0.034

>  <template_combo_score>  (2) 
0.153

$$$$
6QTR_combo_pose
     RDKit          3D

 94 96  0  0  0  0  0  0  0  0999 V2000
   -0.6548  -31.3806    3.8628 C   0  0  0  0  0  0  0  0  0  0  0  0
   -0.0045  -31.1775    2.5122 C   0  0  0  0  0  0  0  0  0  0  0  0
   -0.3463  -32.3884    1.6513 C   0  0  2  0  0  0  0  0  0  0  0  0
    0.2527  -33.5724    2.4259 C   0  0  0  0  0  0  0  0  0  0  0  0
    0.2727  -32.2738    0.2923 C   0  0  2  0  0  0  0  0  0  0  0  0
   -0.2069  -31.0434   -0.3880 N   0  0  0  0  0  0  0  0  0  0  0  0
   -1.5693  -30.8514   -0.6859 C   0  0  0  0  0  0  0  0  0  0  0  0
   -2.3583  -31.7891   -0.3299 O   0  0  0  0  0  0  0  0  0  0  0  0
   -2.1850  -29.7081   -1.3615 C   0  0  1  0  0  0  0  0  0  0  0  0
   -3.5835  -30.0330   -1.7260 N   0  0  0  0  0  0  0  0  0  0  0  0
   -2.1914  -28.4102   -0.6506 C   0  0  0  0  0  0  0  0  0  0  0  0
   -0.8610  -27.8273   -0.3009 C   0  0  0  0  0  0  0  0  0  0  0  0
   -1.1205  -26.5088    0.3772 C   0  0  0  0  0  0  0  0  0  0  0  0
   -1.5503  -26.4584    1.5523 O   0  0  0  0  0  0  0  0  0  0  0  0
   -0.8497  -25.3605   -0.3836 O   0  0  0  0  0  0  0  0  0  0  0  0
    0.0217  -33.4098   -0.6226 C   0  0  0  0  0  0  0  0  0  0  0  0
   -0.5847  -33.0975   -1.7159 O   0  0  0  0  0  0  0  0  0  0  0  0
    0.3559  -34.7560   -0.4513 N   0  0  0  0  0  0  0  0  0  0  0  0
   -0.0298  -35.6887   -1.5852 C   0  0  1  0  0  0  0  0  0  0  0  0
   -1.3952  -36.1153   -1.4548 C   0  0  0  0  0  0  0  0  0  0  0  0
   -1.9408  -37.1178   -2.3837 C   0  0  0  0  0  0  0  0  0  0  0  0
   -2.0772  -36.9259   -3.8307 C   0  0  0  0  0  0  0  0  0  0  0  0
   -2.9452  -35.8258   -4.2316 N   0  0  0  0  0  0  0  0  0  0  0  0
   -3.1146  -35.6028   -5.6195 C   0  0  0  0  0  0  0  0  0  0  0  0
   -3.9616  -34.5274   -6.0004 N   0  0  0  0  0  0  0  0  0  0  0  0
   -2.5402  -36.3234   -6.5311 N   0  0  0  0  0  0  0  0  0  0  0  0
    0.3343  -34.8317   -2.7676 C   0  0  0  0  0  0  0  0  0  0  0  0
   -0.2714  -34.6531   -3.8036 O   0  0  0  0  0  0  0  0  0  0  0  0
    1.5910  -34.1361   -2.6209 N   0  0  0  0  0  0  0  0  0  0  0  0
    2.0706  -33.2015   -3.6645 C   0  0  1  0  0  0  0  0  0  0  0  0
    2.9702  -32.2959   -2.8968 C   0  0  0  0  0  0  0  0  0  0  0  0
    3.7886  -31.2457   -3.5117 C   0  0  0  0  0  0  0  0  0  0  0  0
    4.9088  -31.7019   -4.3797 C   0  0  0  0  0  0  0  0  0  0  0  0
    5.8058  -32.5970   -3.6044 N   0  0  0  0  0  0  0  0  0  0  0  0
    6.9352  -33.1702   -4.2647 C   0  0  0  0  0  0  0  0  0  0  0  0
    7.8026  -34.0202   -3.5189 N   0  0  0  0  0  0  0  0  0  0  0  0
    7.2201  -32.9537   -5.5002 N   0  0  0  0  0  0  0  0  0  0  0  0
    2.7187  -33.7999   -4.8211 C   0  0  0  0  0  0  0  0  0  0  0  0
    3.3686  -34.8858   -4.8186 O   0  0  0  0  0  0  0  0  0  0  0  0
    2.5710  -33.0499   -6.0695 N   0  0  0  0  0  0  0  0  0  0  0  0
    3.1359  -33.4220   -7.3116 C   0  0  2  0  0  0  0  0  0  0  0  0
    3.4955  -32.3072   -8.2174 C   0  0  0  0  0  0  0  0  0  0  0  0
    4.4302  -32.6106   -9.0608 O   0  0  0  0  0  0  0  0  0  0  0  0
    2.9637  -31.0153   -8.2763 N   0  0  0  0  0  0  0  0  0  0  0  0
    1.8690  -30.3560   -7.5932 C   0  0  0  0  0  0  0  0  0  0  0  0
    1.4080  -29.1955   -8.4665 C   0  0  0  0  0  0  0  0  0  0  0  0
    2.2538  -29.2990   -9.7161 C   0  0  0  0  0  0  0  0  0  0  0  0
    3.5060  -29.9555   -9.1579 C   0  0  1  0  0  0  0  0  0  0  0  0
    4.2336  -28.9140   -8.4105 C   0  0  0  0  0  0  0  0  0  0  0  0
    4.4870  -27.8359   -9.0063 O   0  0  0  0  0  0  0  0  0  0  0  0
    4.6695  -29.0373   -7.0734 N   0  0  0  0  0  0  0  0  0  0  0  0
    5.3958  -27.9708   -6.3610 C   0  0  1  0  0  0  0  0  0  0  0  0
    4.9622  -27.7425   -5.0109 C   0  0  0  0  0  0  0  0  0  0  0  0
    5.7245  -26.6928   -4.2532 C   0  0  0  0  0  0  0  0  0  0  0  0
    5.0515  -26.5538   -2.8994 C   0  0  0  0  0  0  0  0  0  0  0  0
    5.5164  -25.7906   -2.0179 O   0  0  0  0  0  0  0  0  0  0  0  0
    3.9028  -27.2662   -2.5976 O   0  0  0  0  0  0  0  0  0  0  0  0
    6.7732  -28.0786   -6.8071 C   0  0  0  0  0  0  0  0  0  0  0  0
    6.9633  -29.0821   -7.6308 O   0  0  0  0  0  0  0  0  0  0  0  0
    7.9047  -27.3183   -6.5362 N   0  0  0  0  0  0  0  0  0  0  0  0
    9.1466  -27.6313   -7.1718 C   0  0  1  0  0  0  0  0  0  0  0  0
    9.6515  -28.9995   -7.2714 C   0  0  0  0  0  0  0  0  0  0  0  0
    9.9456  -29.6492   -5.9647 C   0  0  0  0  0  0  0  0  0  0  0  0
   11.2902  -29.6389   -5.5368 C   0  0  0  0  0  0  0  0  0  0  0  0
   11.6748  -30.1673   -4.3360 C   0  0  0  0  0  0  0  0  0  0  0  0
   10.7323  -30.7245   -3.5180 C   0  0  0  0  0  0  0  0  0  0  0  0
    9.4307  -30.7474   -3.9083 C   0  0  0  0  0  0  0  0  0  0  0  0
    9.0179  -30.2113   -5.1366 C   0  0  0  0  0  0  0  0  0  0  0  0
    9.3463  -26.8417   -8.4117 C   0  0  0  0  0  0  0  0  0  0  0  0
   10.1279  -27.1542   -9.3361 O   0  0  0  0  0  0  0  0  0  0  0  0
    8.5466  -25.6359   -8.4795 N   0  0  0  0  0  0  0  0  0  0  0  0
    8.5418  -24.7262   -9.5707 C   0  0  0  0  0  0  0  0  0  0  0  0
    7.7679  -23.4888   -9.3952 C   0  0  0  0  0  0  0  0  0  0  0  0
    7.7011  -22.7135  -10.4084 O   0  0  0  0  0  0  0  0  0  0  0  0
    7.1105  -23.0988   -8.1964 N   0  0  0  0  0  0  0  0  0  0  0  0
    6.4079  -21.8599   -8.1763 C   0  0  0  0  0  0  0  0  0  0  0  0
    5.2728  -21.8921   -9.1077 C   0  0  0  0  0  0  0  0  0  0  0  0
    4.6083  -20.8188   -9.2537 O   0  0  0  0  0  0  0  0  0  0  0  0
    4.8360  -23.0066   -9.8579 N   0  0  0  0  0  0  0  0  0  0  0  0
    3.6863  -22.7947  -10.7245 C   0  0  1  0  0  0  0  0  0  0  0  0
    3.5387  -23.7670  -11.8271 C   0  0  0  0  0  0  0  0  0  0  0  0
    4.6712  -23.8538  -12.7710 C   0  0  0  0  0  0  0  0  0  0  0  0
    5.6533  -24.8000  -12.4506 C   0  0  0  0  0  0  0  0  0  0  0  0
    6.7688  -24.9901  -13.2431 C   0  0  0  0  0  0  0  0  0  0  0  0
    6.8651  -24.1977  -14.3686 C   0  0  0  0  0  0  0  0  0  0  0  0
    7.9927  -24.3761  -15.1923 O   0  0  0  0  0  0  0  0  0  0  0  0
    5.9240  -23.2573  -14.7195 C   0  0  0  0  0  0  0  0  0  0  0  0
    4.8026  -23.0809  -13.9035 C   0  0  0  0  0  0  0  0  0  0  0  0
    2.4551  -23.0101   -9.8342 C   0  0  0  0  0  0  0  0  0  0  0  0
    2.1922  -22.0972   -9.0005 O   0  0  0  0  0  0  0  0  0  0  0  0
    1.6871  -24.1553   -9.9580 O   0  0  0  0  0  0  0  0  0  0  0  0
    2.1085  -34.2356   -8.1453 C   0  0  0  0  0  0  0  0  0  0  0  0
    2.8027  -34.5966   -9.4258 C   0  0  0  0  0  0  0  0  0  0  0  0
    1.6009  -35.4296   -7.4176 C   0  0  0  0  0  0  0  0  0  0  0  0
  1  2  1  0
  2  3  1  0
  3  4  1  1
  3  5  1  0
  5  6  1  6
  6  7  1  0
  7  8  2  0
  7  9  1  0
  9 10  1  1
  9 11  1  0
 11 12  1  0
 12 13  1  0
 13 14  2  0
 13 15  1  0
  5 16  1  0
 16 17  2  0
 16 18  1  0
 18 19  1  0
 19 20  1  6
 20 21  1  0
 21 22  1  0
 22 23  1  0
 23 24  1  0
 24 25  1  0
 24 26  2  0
 19 27  1  0
 27 28  2  0
 27 29  1  0
 29 30  1  0
 30 31  1  1
 31 32  1  0
 32 33  1  0
 33 34  1  0
 34 35  1  0
 35 36  1  0
 35 37  2  0
 30 38  1  0
 38 39  2  0
 38 40  1  0
 41 40  1  1
 41 42  1  0
 42 43  2  0
 42 44  1  0
 44 45  1  0
 45 46  1  0
 46 47  1  0
 47 48  1  0
 48 49  1  1
 49 50  2  0
 49 51  1  0
 51 52  1  0
 52 53  1  1
 53 54  1  0
 54 55  1  0
 55 56  2  0
 55 57  1  0
 52 58  1  0
 58 59  2  0
 58 60  1  0
 60 61  1  0
 61 62  1  6
 62 63  1  0
 63 64  2  0
 64 65  1  0
 65 66  2  0
 66 67  1  0
 67 68  2  0
 61 69  1  0
 69 70  2  0
 69 71  1  0
 71 72  1  0
 72 73  1  0
 73 74  2  0
 73 75  1  0
 75 76  1  0
 76 77  1  0
 77 78  2  0
 77 79  1  0
 79 80  1  0
 80 81  1  6
 81 82  1  0
 82 83  2  0
 83 84  1  0
 84 85  2  0
 85 86  1  0
 85 87  1  0
 87 88  2  0
 80 89  1  0
 89 90  2  0
 89 91  1  0
 41 92  1  0
 92 93  1  0
 92 94  1  0
 48 44  1  0
 68 63  1  0
 88 82  1  0
M  CHG  6  10   1  15  -1  26   1  37   1  57  -1  91  -1
M  END
>  <shape_align_shape_tanimoto>  (3) 
0.30338405687552245

>  <shape_align_color_tanimoto>  (3) 
0.0096562720394007574

>  <metric>  (3) 
combo

>  <metric_score>  (3) 
0.157

>  <template_pid>  (3) 
6QTR

>  <template_shape_score>  (3) 
0.303

>  <template_color_score>  (3) 
0.010

>  <template_combo_score>  (3) 
0.157

$$$$
