1O2P_shape_pose
     RDKit          3D

 25 27  0  0  0  0  0  0  0  0999 V2000
   45.6291    0.6986   36.1623 C   0  0  0  0  0  0  0  0  0  0  0  0
   44.2038    0.2558   36.5953 C   0  0  0  0  0  0  0  0  0  0  0  0
   43.9985    0.9809   37.9541 C   0  0  0  0  0  0  0  0  0  0  0  0
   43.2594    0.8985   35.6203 C   0  0  0  0  0  0  0  0  0  0  0  0
   43.4002    0.5789   34.2700 O   0  0  0  0  0  0  0  0  0  0  0  0
   43.2204   -0.6574   33.7022 C   0  0  0  0  0  0  0  0  0  0  0  0
   42.8322   -1.8187   34.3441 C   0  0  0  0  0  0  0  0  0  0  0  0
   42.6730   -3.0481   33.6954 C   0  0  0  0  0  0  0  0  0  0  0  0
   42.9251   -3.0718   32.3316 C   0  0  0  0  0  0  0  0  0  0  0  0
   43.3188   -1.9455   31.6141 C   0  0  0  0  0  0  0  0  0  0  0  0
   43.5579   -2.0774   30.1686 C   0  0  0  0  0  0  0  0  0  0  0  0
   43.4099   -3.2264   29.4628 N   0  0  0  0  0  0  0  0  0  0  0  0
   43.6924   -3.0577   28.1608 C   0  0  0  0  0  0  0  0  0  0  0  0
   43.6911   -3.9060   27.0551 C   0  0  0  0  0  0  0  0  0  0  0  0
   44.0406   -3.4446   25.7730 C   0  0  0  0  0  0  0  0  0  0  0  0
   44.0162   -4.4038   24.6768 C   0  0  0  0  0  0  0  0  0  0  0  0
   44.4632   -5.7505   24.9804 N   0  0  0  0  0  0  0  0  0  0  0  0
   43.6307   -4.1478   23.4647 N   0  0  0  0  0  0  0  0  0  0  0  0
   44.3881   -2.1079   25.6524 C   0  0  0  0  0  0  0  0  0  0  0  0
   44.8452   -1.4511   24.1050 Cl  0  0  0  0  0  0  0  0  0  0  0  0
   44.3953   -1.2344   26.7574 C   0  0  0  0  0  0  0  0  0  0  0  0
   44.0438   -1.7208   28.0155 C   0  0  0  0  0  0  0  0  0  0  0  0
   43.9507   -1.1517   29.2615 N   0  0  0  0  0  0  0  0  0  0  0  0
   43.4571   -0.7631   32.3188 C   0  0  0  0  0  0  0  0  0  0  0  0
   43.8511    0.3940   31.6371 O   0  0  0  0  0  0  0  0  0  0  0  0
  1  2  1  0
  2  3  1  0
  2  4  1  0
  4  5  1  0
  5  6  1  0
  6  7  2  0
  7  8  1  0
  8  9  2  0
  9 10  1  0
 10 11  1  0
 11 12  2  0
 12 13  1  0
 13 14  2  0
 14 15  1  0
 15 16  1  0
 16 17  1  0
 16 18  2  0
 15 19  2  0
 19 20  1  0
 19 21  1  0
 21 22  2  0
 22 23  1  0
 10 24  2  0
 24 25  1  0
 24  6  1  0
 23 11  1  0
 22 13  1  0
M  CHG  1  18   1
M  END
>  <shape_align_shape_tanimoto>  (1) 
0.87213710667239042

>  <shape_align_color_tanimoto>  (1) 
0.12952369500388963

>  <metric>  (1) 
shape

>  <metric_score>  (1) 
0.872

>  <template_pid>  (1) 
1O2P

>  <template_shape_score>  (1) 
0.872

>  <template_color_score>  (1) 
0.130

>  <template_combo_score>  (1) 
0.501

$$$$
1O2P_color_pose
     RDKit          3D

 25 27  0  0  0  0  0  0  0  0999 V2000
   44.4022   -6.7670   21.9830 C   0  0  0  0  0  0  0  0  0  0  0  0
   44.1249   -6.5211   23.4324 C   0  0  0  0  0  0  0  0  0  0  0  0
   45.1725   -7.2271   24.2932 C   0  0  0  0  0  0  0  0  0  0  0  0
   44.3465   -5.0270   23.7194 C   0  0  0  0  0  0  0  0  0  0  0  0
   44.0761   -4.7998   25.1138 O   0  0  0  0  0  0  0  0  0  0  0  0
   44.2202   -3.5041   25.5918 C   0  0  0  0  0  0  0  0  0  0  0  0
   44.6086   -2.4395   24.8043 C   0  0  0  0  0  0  0  0  0  0  0  0
   44.7183   -1.1903   25.3943 C   0  0  0  0  0  0  0  0  0  0  0  0
   44.4550   -0.9705   26.7346 C   0  0  0  0  0  0  0  0  0  0  0  0
   44.0676   -2.0495   27.5039 C   0  0  0  0  0  0  0  0  0  0  0  0
   43.7800   -1.8542   28.9237 C   0  0  0  0  0  0  0  0  0  0  0  0
   43.3864   -2.8024   29.7945 N   0  0  0  0  0  0  0  0  0  0  0  0
   43.1996   -2.3021   31.0303 C   0  0  0  0  0  0  0  0  0  0  0  0
   42.8026   -2.8995   32.2140 C   0  0  0  0  0  0  0  0  0  0  0  0
   42.7004   -2.0943   33.3456 C   0  0  0  0  0  0  0  0  0  0  0  0
   42.2828   -2.7449   34.5806 C   0  0  0  0  0  0  0  0  0  0  0  0
   41.4809   -2.1001   35.5631 N   0  0  0  0  0  0  0  0  0  0  0  0
   42.6645   -3.9637   34.7702 N   0  0  0  0  0  0  0  0  0  0  0  0
   42.9932   -0.7491   33.2531 C   0  0  0  0  0  0  0  0  0  0  0  0
   42.8713    0.2589   34.6553 Cl  0  0  0  0  0  0  0  0  0  0  0  0
   43.3939   -0.1627   32.0444 C   0  0  0  0  0  0  0  0  0  0  0  0
   43.4947   -0.9584   30.9265 C   0  0  0  0  0  0  0  0  0  0  0  0
   43.8459   -0.7122   29.6307 N   0  0  0  0  0  0  0  0  0  0  0  0
   43.9473   -3.3099   26.9502 C   0  0  0  0  0  0  0  0  0  0  0  0
   43.5536   -4.3704   27.7618 O   0  0  0  0  0  0  0  0  0  0  0  0
  1  2  1  0
  2  3  1  0
  2  4  1  0
  4  5  1  0
  5  6  1  0
  6  7  2  0
  7  8  1  0
  8  9  2  0
  9 10  1  0
 10 11  1  0
 11 12  2  0
 12 13  1  0
 13 14  2  0
 14 15  1  0
 15 16  1  0
 16 17  1  0
 16 18  2  0
 15 19  2  0
 19 20  1  0
 19 21  1  0
 21 22  2  0
 22 23  1  0
 10 24  2  0
 24 25  1  0
 24  6  1  0
 23 11  1  0
 22 13  1  0
M  CHG  1  18   1
M  END
>  <shape_align_shape_tanimoto>  (2) 
0.80772298976546786

>  <shape_align_color_tanimoto>  (2) 
0.20077444014923915

>  <metric>  (2) 
color

>  <metric_score>  (2) 
0.201

>  <template_pid>  (2) 
1O2P

>  <template_shape_score>  (2) 
0.808

>  <template_color_score>  (2) 
0.201

>  <template_combo_score>  (2) 
0.504

$$$$
1O2P_combo_pose
     RDKit          3D

 25 27  0  0  0  0  0  0  0  0999 V2000
   42.0458   -4.1175   22.8928 C   0  0  0  0  0  0  0  0  0  0  0  0
   43.5919   -3.9154   22.6757 C   0  0  0  0  0  0  0  0  0  0  0  0
   43.8421   -4.4358   21.2077 C   0  0  0  0  0  0  0  0  0  0  0  0
   44.4008   -4.7353   23.6861 C   0  0  0  0  0  0  0  0  0  0  0  0
   44.1911   -4.4521   25.0594 O   0  0  0  0  0  0  0  0  0  0  0  0
   44.4777   -3.2539   25.6931 C   0  0  0  0  0  0  0  0  0  0  0  0
   45.0541   -2.0964   25.1484 C   0  0  0  0  0  0  0  0  0  0  0  0
   45.2946   -0.9117   25.9222 C   0  0  0  0  0  0  0  0  0  0  0  0
   44.9524   -0.8673   27.2929 C   0  0  0  0  0  0  0  0  0  0  0  0
   44.3744   -2.0196   27.8543 C   0  0  0  0  0  0  0  0  0  0  0  0
   44.0075   -1.9752   29.3209 C   0  0  0  0  0  0  0  0  0  0  0  0
   43.4446   -2.9327   30.1036 N   0  0  0  0  0  0  0  0  0  0  0  0
   43.2811   -2.4687   31.3930 C   0  0  0  0  0  0  0  0  0  0  0  0
   42.7465   -3.0794   32.5635 C   0  0  0  0  0  0  0  0  0  0  0  0
   42.7139   -2.3283   33.7629 C   0  0  0  0  0  0  0  0  0  0  0  0
   42.1696   -2.8930   35.0366 C   0  0  0  0  0  0  0  0  0  0  0  0
   41.5498   -2.0452   36.0262 N   0  0  0  0  0  0  0  0  0  0  0  0
   42.2657   -4.2005   35.2465 N   0  0  0  0  0  0  0  0  0  0  0  0
   43.2104   -0.9863   33.7845 C   0  0  0  0  0  0  0  0  0  0  0  0
   43.1813   -0.0188   35.2803 Cl  0  0  0  0  0  0  0  0  0  0  0  0
   43.7450   -0.3743   32.6160 C   0  0  0  0  0  0  0  0  0  0  0  0
   43.7667   -1.1517   31.4204 C   0  0  0  0  0  0  0  0  0  0  0  0
   44.2073   -0.8699   30.1388 N   0  0  0  0  0  0  0  0  0  0  0  0
   44.1427   -3.1679   27.0971 C   0  0  0  0  0  0  0  0  0  0  0  0
   43.5528   -4.2884   27.7499 O   0  0  0  0  0  0  0  0  0  0  0  0
  1  2  1  0
  2  3  1  0
  2  4  1  0
  4  5  1  0
  5  6  1  0
  6  7  2  0
  7  8  1  0
  8  9  2  0
  9 10  1  0
 10 11  1  0
 11 12  2  0
 12 13  1  0
 13 14  2  0
 14 15  1  0
 15 16  1  0
 16 17  1  0
 16 18  2  0
 15 19  2  0
 19 20  1  0
 19 21  1  0
 21 22  2  0
 22 23  1  0
 10 24  2  0
 24 25  1  0
 24  6  1  0
 23 11  1  0
 22 13  1  0
M  CHG  1  18   1
M  END
>  <shape_align_shape_tanimoto>  (3) 
0.84344182460744666

>  <shape_align_color_tanimoto>  (3) 
0.16510175188904566

>  <metric>  (3) 
combo

>  <metric_score>  (3) 
0.504

>  <template_pid>  (3) 
1O2P

>  <template_shape_score>  (3) 
0.843

>  <template_color_score>  (3) 
0.165

>  <template_combo_score>  (3) 
0.504

$$$$
