4RJ5_shape_pose
     RDKit          3D

 29 33  0  0  0  0  0  0  0  0999 V2000
   17.2042   -2.0284  -32.4531 C   0  0  0  0  0  0  0  0  0  0  0  0
   16.5066   -0.8325  -32.6548 O   0  0  0  0  0  0  0  0  0  0  0  0
   15.1793   -1.0872  -32.9627 C   0  0  0  0  0  0  0  0  0  0  0  0
   14.2113   -0.3350  -32.1059 C   0  0  0  0  0  0  0  0  0  0  0  0
   12.9123   -0.0139  -32.8624 C   0  0  0  0  0  0  0  0  0  0  0  0
   12.6822   -1.1506  -33.7161 N   0  0  0  0  0  0  0  0  0  0  0  0
   11.6166   -2.0691  -33.5918 C   0  0  0  0  0  0  0  0  0  0  0  0
   10.3657   -1.7751  -33.2375 N   0  0  0  0  0  0  0  0  0  0  0  0
    9.3752   -2.7032  -33.1101 C   0  0  0  0  0  0  0  0  0  0  0  0
    9.6717   -4.0446  -33.3606 C   0  0  0  0  0  0  0  0  0  0  0  0
   10.9635   -4.3318  -33.7232 C   0  0  0  0  0  0  0  0  0  0  0  0
   11.4232   -5.6737  -33.9886 N   0  0  0  0  0  0  0  0  0  0  0  0
   12.6666   -5.9958  -33.3277 C   0  0  0  0  0  0  0  0  0  0  0  0
   12.6183   -5.8590  -31.9330 C   0  0  0  0  0  0  0  0  0  0  0  0
   13.7910   -6.1537  -31.2675 C   0  0  0  0  0  0  0  0  0  0  0  0
   14.0115   -6.0987  -29.9343 N   0  0  0  0  0  0  0  0  0  0  0  0
   15.2922   -6.4615  -29.7118 C   0  0  0  0  0  0  0  0  0  0  0  0
   15.9271   -6.5181  -28.3843 C   0  0  0  0  0  0  0  0  0  0  0  0
   17.2229   -6.8917  -28.0970 C   0  0  0  0  0  0  0  0  0  0  0  0
   17.3603   -6.7823  -26.7685 N   0  0  0  0  0  0  0  0  0  0  0  0
   16.2539   -6.3696  -26.1875 N   0  0  0  0  0  0  0  0  0  0  0  0
   15.3382   -6.1953  -27.1753 C   0  0  0  0  0  0  0  0  0  0  0  0
   15.8759   -6.7475  -30.9260 C   0  0  0  0  0  0  0  0  0  0  0  0
   14.9374   -6.5564  -31.9192 C   0  0  0  0  0  0  0  0  0  0  0  0
   14.9232   -6.6728  -33.3007 C   0  0  0  0  0  0  0  0  0  0  0  0
   13.7665   -6.3838  -33.9766 N   0  0  0  0  0  0  0  0  0  0  0  0
   11.9086   -3.3676  -33.8357 N   0  0  0  0  0  0  0  0  0  0  0  0
   13.6113   -1.3649  -34.8167 C   0  0  0  0  0  0  0  0  0  0  0  0
   14.9232   -0.7286  -34.4323 C   0  0  0  0  0  0  0  0  0  0  0  0
  1  2  1  0
  2  3  1  0
  3  4  1  0
  4  5  1  0
  5  6  1  0
  6  7  1  0
  7  8  2  0
  8  9  1  0
  9 10  2  0
 10 11  1  0
 11 12  1  0
 12 13  1  0
 13 14  2  0
 14 15  1  0
 15 16  1  0
 16 17  1  0
 17 18  1  0
 18 19  1  0
 19 20  2  0
 20 21  1  0
 21 22  1  0
 17 23  2  0
 23 24  1  0
 24 25  1  0
 25 26  2  0
 11 27  2  0
  6 28  1  0
 28 29  1  0
 29  3  1  0
 27  7  1  0
 26 13  1  0
 24 15  2  0
 22 18  2  0
M  END
>  <shape_align_shape_tanimoto>  (1) 
0.76134829270812998

>  <shape_align_color_tanimoto>  (1) 
0.1067604166148509

>  <metric>  (1) 
shape

>  <metric_score>  (1) 
0.761

>  <template_pid>  (1) 
4RJ5

>  <template_shape_score>  (1) 
0.761

>  <template_color_score>  (1) 
0.107

>  <template_combo_score>  (1) 
0.434

$$$$
4RJ5_color_pose
     RDKit          3D

 29 33  0  0  0  0  0  0  0  0999 V2000
    9.6309    0.3786  -37.3789 C   0  0  0  0  0  0  0  0  0  0  0  0
   10.0413    1.2187  -36.3210 O   0  0  0  0  0  0  0  0  0  0  0  0
   10.2971    0.4049  -35.2442 C   0  0  0  0  0  0  0  0  0  0  0  0
   11.7436    0.4657  -34.7644 C   0  0  0  0  0  0  0  0  0  0  0  0
   11.8973   -0.6146  -33.7013 C   0  0  0  0  0  0  0  0  0  0  0  0
   10.6339   -1.2906  -33.4338 N   0  0  0  0  0  0  0  0  0  0  0  0
   10.5723   -2.7134  -33.4639 C   0  0  0  0  0  0  0  0  0  0  0  0
    9.4164   -3.3868  -33.2217 N   0  0  0  0  0  0  0  0  0  0  0  0
    9.3495   -4.7339  -33.2484 C   0  0  0  0  0  0  0  0  0  0  0  0
   10.4925   -5.4567  -33.5311 C   0  0  0  0  0  0  0  0  0  0  0  0
   11.6746   -4.7862  -33.7794 C   0  0  0  0  0  0  0  0  0  0  0  0
   12.8867   -5.4746  -34.0769 N   0  0  0  0  0  0  0  0  0  0  0  0
   13.7782   -5.8663  -33.0383 C   0  0  0  0  0  0  0  0  0  0  0  0
   13.4491   -5.5682  -31.7296 C   0  0  0  0  0  0  0  0  0  0  0  0
   14.3729   -5.9844  -30.7650 C   0  0  0  0  0  0  0  0  0  0  0  0
   14.4230   -5.8897  -29.4198 N   0  0  0  0  0  0  0  0  0  0  0  0
   15.5491   -6.4619  -28.9590 C   0  0  0  0  0  0  0  0  0  0  0  0
   15.9420   -6.5492  -27.5577 C   0  0  0  0  0  0  0  0  0  0  0  0
   15.2547   -6.0759  -26.4695 C   0  0  0  0  0  0  0  0  0  0  0  0
   15.9831   -6.3747  -25.3845 N   0  0  0  0  0  0  0  0  0  0  0  0
   17.0711   -6.9996  -25.7350 N   0  0  0  0  0  0  0  0  0  0  0  0
   17.0961   -7.1341  -27.0690 C   0  0  0  0  0  0  0  0  0  0  0  0
   16.2684   -6.9512  -30.0293 C   0  0  0  0  0  0  0  0  0  0  0  0
   15.5178   -6.6429  -31.1434 C   0  0  0  0  0  0  0  0  0  0  0  0
   15.8094   -6.9226  -32.4732 C   0  0  0  0  0  0  0  0  0  0  0  0
   14.9075   -6.5133  -33.3819 N   0  0  0  0  0  0  0  0  0  0  0  0
   11.6683   -3.4396  -33.7360 N   0  0  0  0  0  0  0  0  0  0  0  0
    9.4660   -0.5160  -33.1431 C   0  0  0  0  0  0  0  0  0  0  0  0
    9.4634    0.7163  -34.0189 C   0  0  0  0  0  0  0  0  0  0  0  0
  1  2  1  0
  2  3  1  0
  3  4  1  0
  4  5  1  0
  5  6  1  0
  6  7  1  0
  7  8  2  0
  8  9  1  0
  9 10  2  0
 10 11  1  0
 11 12  1  0
 12 13  1  0
 13 14  2  0
 14 15  1  0
 15 16  1  0
 16 17  1  0
 17 18  1  0
 18 19  1  0
 19 20  2  0
 20 21  1  0
 21 22  1  0
 17 23  2  0
 23 24  1  0
 24 25  1  0
 25 26  2  0
 11 27  2  0
  6 28  1  0
 28 29  1  0
 29  3  1  0
 27  7  1  0
 26 13  1  0
 24 15  2  0
 22 18  2  0
M  END
>  <shape_align_shape_tanimoto>  (2) 
0.49930160847644084

>  <shape_align_color_tanimoto>  (2) 
0.11581548054036926

>  <metric>  (2) 
color

>  <metric_score>  (2) 
0.116

>  <template_pid>  (2) 
4RJ5

>  <template_shape_score>  (2) 
0.499

>  <template_color_score>  (2) 
0.116

>  <template_combo_score>  (2) 
0.308

$$$$
4RJ5_combo_pose
     RDKit          3D

 29 33  0  0  0  0  0  0  0  0999 V2000
   17.2042   -2.0284  -32.4531 C   0  0  0  0  0  0  0  0  0  0  0  0
   16.5066   -0.8325  -32.6548 O   0  0  0  0  0  0  0  0  0  0  0  0
   15.1793   -1.0872  -32.9627 C   0  0  0  0  0  0  0  0  0  0  0  0
   14.2113   -0.3350  -32.1059 C   0  0  0  0  0  0  0  0  0  0  0  0
   12.9123   -0.0139  -32.8624 C   0  0  0  0  0  0  0  0  0  0  0  0
   12.6822   -1.1506  -33.7161 N   0  0  0  0  0  0  0  0  0  0  0  0
   11.6166   -2.0691  -33.5918 C   0  0  0  0  0  0  0  0  0  0  0  0
   10.3657   -1.7751  -33.2375 N   0  0  0  0  0  0  0  0  0  0  0  0
    9.3752   -2.7032  -33.1101 C   0  0  0  0  0  0  0  0  0  0  0  0
    9.6717   -4.0446  -33.3606 C   0  0  0  0  0  0  0  0  0  0  0  0
   10.9635   -4.3318  -33.7232 C   0  0  0  0  0  0  0  0  0  0  0  0
   11.4232   -5.6737  -33.9886 N   0  0  0  0  0  0  0  0  0  0  0  0
   12.6666   -5.9958  -33.3277 C   0  0  0  0  0  0  0  0  0  0  0  0
   12.6183   -5.8590  -31.9330 C   0  0  0  0  0  0  0  0  0  0  0  0
   13.7910   -6.1537  -31.2675 C   0  0  0  0  0  0  0  0  0  0  0  0
   14.0115   -6.0987  -29.9343 N   0  0  0  0  0  0  0  0  0  0  0  0
   15.2922   -6.4615  -29.7118 C   0  0  0  0  0  0  0  0  0  0  0  0
   15.9271   -6.5181  -28.3843 C   0  0  0  0  0  0  0  0  0  0  0  0
   17.2229   -6.8917  -28.0970 C   0  0  0  0  0  0  0  0  0  0  0  0
   17.3603   -6.7823  -26.7685 N   0  0  0  0  0  0  0  0  0  0  0  0
   16.2539   -6.3696  -26.1875 N   0  0  0  0  0  0  0  0  0  0  0  0
   15.3382   -6.1953  -27.1753 C   0  0  0  0  0  0  0  0  0  0  0  0
   15.8759   -6.7475  -30.9260 C   0  0  0  0  0  0  0  0  0  0  0  0
   14.9374   -6.5564  -31.9192 C   0  0  0  0  0  0  0  0  0  0  0  0
   14.9232   -6.6728  -33.3007 C   0  0  0  0  0  0  0  0  0  0  0  0
   13.7665   -6.3838  -33.9766 N   0  0  0  0  0  0  0  0  0  0  0  0
   11.9086   -3.3676  -33.8357 N   0  0  0  0  0  0  0  0  0  0  0  0
   13.6113   -1.3649  -34.8167 C   0  0  0  0  0  0  0  0  0  0  0  0
   14.9232   -0.7286  -34.4323 C   0  0  0  0  0  0  0  0  0  0  0  0
  1  2  1  0
  2  3  1  0
  3  4  1  0
  4  5  1  0
  5  6  1  0
  6  7  1  0
  7  8  2  0
  8  9  1  0
  9 10  2  0
 10 11  1  0
 11 12  1  0
 12 13  1  0
 13 14  2  0
 14 15  1  0
 15 16  1  0
 16 17  1  0
 17 18  1  0
 18 19  1  0
 19 20  2  0
 20 21  1  0
 21 22  1  0
 17 23  2  0
 23 24  1  0
 24 25  1  0
 25 26  2  0
 11 27  2  0
  6 28  1  0
 28 29  1  0
 29  3  1  0
 27  7  1  0
 26 13  1  0
 24 15  2  0
 22 18  2  0
M  END
>  <shape_align_shape_tanimoto>  (3) 
0.76134829270812998

>  <shape_align_color_tanimoto>  (3) 
0.1067604166148509

>  <metric>  (3) 
combo

>  <metric_score>  (3) 
0.434

>  <template_pid>  (3) 
4RJ5

>  <template_shape_score>  (3) 
0.761

>  <template_color_score>  (3) 
0.107

>  <template_combo_score>  (3) 
0.434

$$$$
