5UR5_shape_pose
     RDKit          3D

 23 24  0  0  0  0  0  0  0  0999 V2000
  -37.3888   93.5577   18.4857 C   0  0  0  0  0  0  0  0  0  0  0  0
  -36.7669   92.1920   18.5457 C   0  0  0  0  0  0  0  0  0  0  0  0
  -35.2908   92.2423   18.8363 C   0  0  0  0  0  0  0  0  0  0  0  0
  -34.4198   92.0233   17.7775 C   0  0  0  0  0  0  0  0  0  0  0  0
  -33.0559   92.0523   17.9647 C   0  0  0  0  0  0  0  0  0  0  0  0
  -32.2325   91.8173   16.8299 N   0  0  0  0  0  0  0  0  0  0  0  0
  -30.8295   92.7532   16.4697 S   0  0  0  0  0  0  0  0  0  0  0  0
  -30.9327   93.3807   15.1067 O   0  0  0  0  0  0  0  0  0  0  0  0
  -30.7470   93.8402   17.5248 O   0  0  0  0  0  0  0  0  0  0  0  0
  -29.3297   91.8304   16.5952 C   0  0  0  0  0  0  0  0  0  0  0  0
  -29.2095   91.3164   17.9832 C   0  0  0  0  0  0  0  0  0  0  0  0
  -29.7675   90.0549   18.2119 C   0  0  0  0  0  0  0  0  0  0  0  0
  -29.6976   89.5114   19.4768 C   0  0  0  0  0  0  0  0  0  0  0  0
  -29.0790   90.2051   20.5231 C   0  0  0  0  0  0  0  0  0  0  0  0
  -29.0400   89.5632   21.8538 C   0  0  0  0  0  0  0  0  0  0  0  0
  -28.5365   91.4494   20.2681 C   0  0  0  0  0  0  0  0  0  0  0  0
  -28.5976   92.0107   19.0031 C   0  0  0  0  0  0  0  0  0  0  0  0
  -32.5661   92.3034   19.2270 C   0  0  0  0  0  0  0  0  0  0  0  0
  -33.4407   92.5201   20.2741 C   0  0  0  0  0  0  0  0  0  0  0  0
  -32.9323   92.7948   21.6478 C   0  0  0  0  0  0  0  0  0  0  0  0
  -34.8103   92.4947   20.1039 C   0  0  0  0  0  0  0  0  0  0  0  0
  -35.7198   92.7204   21.1945 C   0  0  0  0  0  0  0  0  0  0  0  0
  -36.4492   92.9034   22.0753 N   0  0  0  0  0  0  0  0  0  0  0  0
  1  2  1  0
  2  3  1  0
  3  4  2  0
  4  5  1  0
  5  6  1  0
  6  7  1  0
  7  8  2  0
  7  9  2  0
  7 10  1  0
 10 11  1  0
 11 12  2  0
 12 13  1  0
 13 14  2  0
 14 15  1  0
 14 16  1  0
 16 17  2  0
  5 18  2  0
 18 19  1  0
 19 20  1  0
 19 21  2  0
 21 22  1  0
 22 23  3  0
 21  3  1  0
 17 11  1  0
M  END
>  <shape_align_shape_tanimoto>  (1) 
0.72272356966792717

>  <shape_align_color_tanimoto>  (1) 
0.038746129881690891

>  <metric>  (1) 
shape

>  <metric_score>  (1) 
0.723

>  <template_pid>  (1) 
5UR5

>  <template_shape_score>  (1) 
0.723

>  <template_color_score>  (1) 
0.039

>  <template_combo_score>  (1) 
0.381

$$$$
5UR5_color_pose
     RDKit          3D

 23 24  0  0  0  0  0  0  0  0999 V2000
  -36.4200   92.5303   19.9556 C   0  0  0  0  0  0  0  0  0  0  0  0
  -35.5224   91.9527   18.8909 C   0  0  0  0  0  0  0  0  0  0  0  0
  -34.1299   92.3789   19.1998 C   0  0  0  0  0  0  0  0  0  0  0  0
  -33.2616   91.4422   19.7651 C   0  0  0  0  0  0  0  0  0  0  0  0
  -31.9626   91.8556   20.0502 C   0  0  0  0  0  0  0  0  0  0  0  0
  -31.0024   90.9681   20.6343 N   0  0  0  0  0  0  0  0  0  0  0  0
  -29.3872   90.8334   20.1022 S   0  0  0  0  0  0  0  0  0  0  0  0
  -28.6822   89.8270   20.9537 O   0  0  0  0  0  0  0  0  0  0  0  0
  -28.6826   92.1422   20.3033 O   0  0  0  0  0  0  0  0  0  0  0  0
  -29.2328   90.2893   18.4201 C   0  0  0  0  0  0  0  0  0  0  0  0
  -29.8720   91.1756   17.4440 C   0  0  0  0  0  0  0  0  0  0  0  0
  -31.1919   90.9517   17.1087 C   0  0  0  0  0  0  0  0  0  0  0  0
  -31.8839   91.7259   16.2017 C   0  0  0  0  0  0  0  0  0  0  0  0
  -31.2463   92.7848   15.5845 C   0  0  0  0  0  0  0  0  0  0  0  0
  -32.0158   93.6028   14.6094 C   0  0  0  0  0  0  0  0  0  0  0  0
  -29.9251   93.0362   15.8978 C   0  0  0  0  0  0  0  0  0  0  0  0
  -29.2457   92.2358   16.8213 C   0  0  0  0  0  0  0  0  0  0  0  0
  -31.5707   93.1597   19.7715 C   0  0  0  0  0  0  0  0  0  0  0  0
  -32.4335   94.0845   19.2116 C   0  0  0  0  0  0  0  0  0  0  0  0
  -31.9628   95.4660   18.9341 C   0  0  0  0  0  0  0  0  0  0  0  0
  -33.7191   93.6565   18.9352 C   0  0  0  0  0  0  0  0  0  0  0  0
  -34.6170   94.6262   18.3476 C   0  0  0  0  0  0  0  0  0  0  0  0
  -35.3334   95.4035   17.8828 N   0  0  0  0  0  0  0  0  0  0  0  0
  1  2  1  0
  2  3  1  0
  3  4  2  0
  4  5  1  0
  5  6  1  0
  6  7  1  0
  7  8  2  0
  7  9  2  0
  7 10  1  0
 10 11  1  0
 11 12  2  0
 12 13  1  0
 13 14  2  0
 14 15  1  0
 14 16  1  0
 16 17  2  0
  5 18  2  0
 18 19  1  0
 19 20  1  0
 19 21  2  0
 21 22  1  0
 22 23  3  0
 21  3  1  0
 17 11  1  0
M  END
>  <shape_align_shape_tanimoto>  (2) 
0.56155364230339821

>  <shape_align_color_tanimoto>  (2) 
0.23138624717704342

>  <metric>  (2) 
color

>  <metric_score>  (2) 
0.231

>  <template_pid>  (2) 
5UR5

>  <template_shape_score>  (2) 
0.562

>  <template_color_score>  (2) 
0.231

>  <template_combo_score>  (2) 
0.396

$$$$
5UR5_combo_pose
     RDKit          3D

 23 24  0  0  0  0  0  0  0  0999 V2000
  -36.4200   92.5303   19.9556 C   0  0  0  0  0  0  0  0  0  0  0  0
  -35.5224   91.9527   18.8909 C   0  0  0  0  0  0  0  0  0  0  0  0
  -34.1299   92.3789   19.1998 C   0  0  0  0  0  0  0  0  0  0  0  0
  -33.2616   91.4422   19.7651 C   0  0  0  0  0  0  0  0  0  0  0  0
  -31.9626   91.8556   20.0502 C   0  0  0  0  0  0  0  0  0  0  0  0
  -31.0024   90.9681   20.6343 N   0  0  0  0  0  0  0  0  0  0  0  0
  -29.3872   90.8334   20.1022 S   0  0  0  0  0  0  0  0  0  0  0  0
  -28.6822   89.8270   20.9537 O   0  0  0  0  0  0  0  0  0  0  0  0
  -28.6826   92.1422   20.3033 O   0  0  0  0  0  0  0  0  0  0  0  0
  -29.2328   90.2893   18.4201 C   0  0  0  0  0  0  0  0  0  0  0  0
  -29.8720   91.1756   17.4440 C   0  0  0  0  0  0  0  0  0  0  0  0
  -31.1919   90.9517   17.1087 C   0  0  0  0  0  0  0  0  0  0  0  0
  -31.8839   91.7259   16.2017 C   0  0  0  0  0  0  0  0  0  0  0  0
  -31.2463   92.7848   15.5845 C   0  0  0  0  0  0  0  0  0  0  0  0
  -32.0158   93.6028   14.6094 C   0  0  0  0  0  0  0  0  0  0  0  0
  -29.9251   93.0362   15.8978 C   0  0  0  0  0  0  0  0  0  0  0  0
  -29.2457   92.2358   16.8213 C   0  0  0  0  0  0  0  0  0  0  0  0
  -31.5707   93.1597   19.7715 C   0  0  0  0  0  0  0  0  0  0  0  0
  -32.4335   94.0845   19.2116 C   0  0  0  0  0  0  0  0  0  0  0  0
  -31.9628   95.4660   18.9341 C   0  0  0  0  0  0  0  0  0  0  0  0
  -33.7191   93.6565   18.9352 C   0  0  0  0  0  0  0  0  0  0  0  0
  -34.6170   94.6262   18.3476 C   0  0  0  0  0  0  0  0  0  0  0  0
  -35.3334   95.4035   17.8828 N   0  0  0  0  0  0  0  0  0  0  0  0
  1  2  1  0
  2  3  1  0
  3  4  2  0
  4  5  1  0
  5  6  1  0
  6  7  1  0
  7  8  2  0
  7  9  2  0
  7 10  1  0
 10 11  1  0
 11 12  2  0
 12 13  1  0
 13 14  2  0
 14 15  1  0
 14 16  1  0
 16 17  2  0
  5 18  2  0
 18 19  1  0
 19 20  1  0
 19 21  2  0
 21 22  1  0
 22 23  3  0
 21  3  1  0
 17 11  1  0
M  END
>  <shape_align_shape_tanimoto>  (3) 
0.56155364230339821

>  <shape_align_color_tanimoto>  (3) 
0.23138624717704342

>  <metric>  (3) 
combo

>  <metric_score>  (3) 
0.396

>  <template_pid>  (3) 
5UR5

>  <template_shape_score>  (3) 
0.562

>  <template_color_score>  (3) 
0.231

>  <template_combo_score>  (3) 
0.396

$$$$
