4ODE_shape_pose
     RDKit          3D

 45 49  0  0  0  0  0  0  0  0999 V2000
  -17.1112  -23.5794  -24.2379 C   0  0  0  0  0  0  0  0  0  0  0  0
  -17.2280  -22.2629  -24.9326 C   0  0  0  0  0  0  0  0  0  0  0  0
  -18.2691  -21.4080  -24.2385 C   0  0  0  0  0  0  0  0  0  0  0  0
  -17.6854  -22.4136  -26.3667 C   0  0  0  0  0  0  0  0  0  0  0  0
  -15.5986  -21.4247  -24.8858 S   0  0  0  0  0  0  0  0  0  0  0  0
  -15.3414  -21.3420  -23.3884 O   0  0  0  0  0  0  0  0  0  0  0  0
  -14.6444  -22.4238  -25.3837 O   0  0  0  0  0  0  0  0  0  0  0  0
  -15.7962  -19.9320  -25.6924 C   0  0  0  0  0  0  0  0  0  0  0  0
  -14.7851  -18.9138  -25.9102 C   0  0  2  0  0  0  0  0  0  0  0  0
  -13.5450  -19.1355  -26.6863 C   0  0  0  0  0  0  0  0  0  0  0  0
  -13.7375  -19.5210  -28.1985 C   0  0  0  0  0  0  0  0  0  0  0  0
  -12.9418  -20.3192  -27.2362 C   0  0  0  0  0  0  0  0  0  0  0  0
  -14.5943  -17.9085  -24.8534 N   0  0  0  0  0  0  0  0  0  0  0  0
  -15.1080  -16.5567  -25.0542 C   0  0  0  0  0  0  0  0  0  0  0  0
  -16.1664  -16.4001  -25.7188 O   0  0  0  0  0  0  0  0  0  0  0  0
  -14.3899  -15.3717  -24.4808 C   0  0  1  0  0  0  0  0  0  0  0  0
  -13.7843  -14.7246  -25.7492 C   0  0  0  0  0  0  0  0  0  0  0  0
  -15.4602  -14.3945  -24.0453 C   0  0  0  0  0  0  0  0  0  0  0  0
  -14.9393  -13.1528  -23.4545 C   0  0  0  0  0  0  0  0  0  0  0  0
  -14.6000  -12.0580  -23.8144 N   0  0  0  0  0  0  0  0  0  0  0  0
  -14.1604  -11.0652  -23.0801 C   0  0  0  0  0  0  0  0  0  0  0  0
  -14.0755  -11.2985  -21.7393 C   0  0  0  0  0  0  0  0  0  0  0  0
  -13.6371  -10.4478  -20.6129 C   0  0  0  0  0  0  0  0  0  0  0  0
  -12.1815  -10.5776  -20.3491 C   0  0  0  0  0  0  0  0  0  0  0  0
  -11.4391  -11.3402  -21.0338 O   0  0  0  0  0  0  0  0  0  0  0  0
  -11.6690   -9.8116  -19.3010 O   0  0  0  0  0  0  0  0  0  0  0  0
  -14.6566  -13.0045  -21.5997 S   0  0  0  0  0  0  0  0  0  0  0  0
  -13.3441  -15.6622  -23.5018 C   0  0  0  0  0  0  0  0  0  0  0  0
  -12.9595  -17.0419  -23.1924 C   0  0  2  0  0  0  0  0  0  0  0  0
  -11.5453  -17.3474  -23.5528 C   0  0  0  0  0  0  0  0  0  0  0  0
  -10.6991  -17.9490  -22.6411 C   0  0  0  0  0  0  0  0  0  0  0  0
   -9.3646  -18.2350  -22.9551 C   0  0  0  0  0  0  0  0  0  0  0  0
   -8.8544  -17.9247  -24.1844 C   0  0  0  0  0  0  0  0  0  0  0  0
   -9.6817  -17.3232  -25.1104 C   0  0  0  0  0  0  0  0  0  0  0  0
   -9.0067  -16.9350  -26.6777 Cl  0  0  0  0  0  0  0  0  0  0  0  0
  -10.9993  -17.0471  -24.7835 C   0  0  0  0  0  0  0  0  0  0  0  0
  -13.9232  -18.1230  -23.6144 C   0  0  1  0  0  0  0  0  0  0  0  0
  -14.8337  -18.3300  -22.4494 C   0  0  0  0  0  0  0  0  0  0  0  0
  -16.0671  -17.7912  -22.3259 C   0  0  0  0  0  0  0  0  0  0  0  0
  -16.8591  -17.9915  -21.1906 C   0  0  0  0  0  0  0  0  0  0  0  0
  -16.3905  -18.7630  -20.1426 C   0  0  0  0  0  0  0  0  0  0  0  0
  -17.4091  -18.9991  -18.7241 Cl  0  0  0  0  0  0  0  0  0  0  0  0
  -15.1481  -19.3095  -20.2602 C   0  0  0  0  0  0  0  0  0  0  0  0
  -14.6562  -20.0767  -19.2425 F   0  0  0  0  0  0  0  0  0  0  0  0
  -14.3740  -19.1098  -21.3772 C   0  0  0  0  0  0  0  0  0  0  0  0
  1  2  1  0
  2  3  1  0
  2  4  1  0
  2  5  1  0
  5  6  2  0
  5  7  2  0
  5  8  1  0
  9  8  1  1
  9 10  1  0
 10 11  1  0
 11 12  1  0
  9 13  1  0
 13 14  1  0
 14 15  2  0
 14 16  1  0
 16 17  1  6
 16 18  1  0
 18 19  1  0
 19 20  2  0
 20 21  1  0
 21 22  2  0
 22 23  1  0
 23 24  1  0
 24 25  2  0
 24 26  1  0
 22 27  1  0
 16 28  1  0
 28 29  1  0
 29 30  1  6
 30 31  2  0
 31 32  1  0
 32 33  2  0
 33 34  1  0
 34 35  1  0
 34 36  2  0
 29 37  1  0
 37 38  1  1
 38 39  2  0
 39 40  1  0
 40 41  2  0
 41 42  1  0
 41 43  1  0
 43 44  1  0
 43 45  2  0
 12 10  1  0
 37 13  1  0
 45 38  1  0
 27 19  1  0
 36 30  1  0
M  CHG  1  26  -1
M  END
>  <shape_align_shape_tanimoto>  (1) 
0.34556128722866097

>  <shape_align_color_tanimoto>  (1) 
0.012332443994504576

>  <metric>  (1) 
shape

>  <metric_score>  (1) 
0.346

>  <template_pid>  (1) 
4ODE

>  <template_shape_score>  (1) 
0.346

>  <template_color_score>  (1) 
0.012

>  <template_combo_score>  (1) 
0.179

$$$$
4ODE_color_pose
     RDKit          3D

 45 49  0  0  0  0  0  0  0  0999 V2000
  -15.3487  -10.7695  -18.3312 C   0  0  0  0  0  0  0  0  0  0  0  0
  -14.4225   -9.7217  -18.8705 C   0  0  0  0  0  0  0  0  0  0  0  0
  -14.1481   -8.7376  -17.7446 C   0  0  0  0  0  0  0  0  0  0  0  0
  -15.0885   -8.9382  -19.9793 C   0  0  0  0  0  0  0  0  0  0  0  0
  -12.8369  -10.3302  -19.3992 S   0  0  0  0  0  0  0  0  0  0  0  0
  -12.1568   -9.0708  -19.9968 O   0  0  0  0  0  0  0  0  0  0  0  0
  -12.0418  -10.6526  -18.2116 O   0  0  0  0  0  0  0  0  0  0  0  0
  -12.8740  -11.4844  -20.6931 C   0  0  0  0  0  0  0  0  0  0  0  0
  -13.5892  -12.7618  -20.4704 C   0  0  2  0  0  0  0  0  0  0  0  0
  -13.0846  -13.7630  -19.4999 C   0  0  0  0  0  0  0  0  0  0  0  0
  -11.8896  -14.5959  -19.5206 C   0  0  0  0  0  0  0  0  0  0  0  0
  -11.7729  -13.3167  -18.7768 C   0  0  0  0  0  0  0  0  0  0  0  0
  -13.9638  -13.3841  -21.7518 N   0  0  0  0  0  0  0  0  0  0  0  0
  -12.8848  -13.8666  -22.5702 C   0  0  0  0  0  0  0  0  0  0  0  0
  -11.7515  -13.3239  -22.5812 O   0  0  0  0  0  0  0  0  0  0  0  0
  -13.0683  -15.0469  -23.4548 C   0  0  1  0  0  0  0  0  0  0  0  0
  -12.2259  -14.8264  -24.6910 C   0  0  0  0  0  0  0  0  0  0  0  0
  -12.6376  -16.3438  -22.8207 C   0  0  0  0  0  0  0  0  0  0  0  0
  -12.8245  -17.5202  -23.7130 C   0  0  0  0  0  0  0  0  0  0  0  0
  -13.8718  -18.3062  -23.8376 N   0  0  0  0  0  0  0  0  0  0  0  0
  -13.9050  -19.2953  -24.6516 C   0  0  0  0  0  0  0  0  0  0  0  0
  -12.7496  -19.5100  -25.4230 C   0  0  0  0  0  0  0  0  0  0  0  0
  -12.4626  -20.5453  -26.4363 C   0  0  0  0  0  0  0  0  0  0  0  0
  -12.8772  -20.1238  -27.7995 C   0  0  0  0  0  0  0  0  0  0  0  0
  -13.4015  -18.9829  -27.9223 O   0  0  0  0  0  0  0  0  0  0  0  0
  -12.6675  -20.9952  -28.8432 O   0  0  0  0  0  0  0  0  0  0  0  0
  -11.6692  -18.1918  -24.8681 S   0  0  0  0  0  0  0  0  0  0  0  0
  -14.5231  -15.1771  -23.8697 C   0  0  0  0  0  0  0  0  0  0  0  0
  -15.4476  -14.9839  -22.7054 C   0  0  2  0  0  0  0  0  0  0  0  0
  -16.8236  -15.3124  -23.0864 C   0  0  0  0  0  0  0  0  0  0  0  0
  -17.4925  -14.7340  -24.1417 C   0  0  0  0  0  0  0  0  0  0  0  0
  -18.7951  -15.1153  -24.4196 C   0  0  0  0  0  0  0  0  0  0  0  0
  -19.4557  -16.0636  -23.6708 C   0  0  0  0  0  0  0  0  0  0  0  0
  -18.7941  -16.6501  -22.6100 C   0  0  0  0  0  0  0  0  0  0  0  0
  -19.5623  -17.8708  -21.6001 Cl  0  0  0  0  0  0  0  0  0  0  0  0
  -17.5028  -16.2620  -22.3464 C   0  0  0  0  0  0  0  0  0  0  0  0
  -15.3017  -13.5300  -22.2395 C   0  0  1  0  0  0  0  0  0  0  0  0
  -16.3795  -13.2038  -21.2868 C   0  0  0  0  0  0  0  0  0  0  0  0
  -17.3458  -12.2386  -21.6085 C   0  0  0  0  0  0  0  0  0  0  0  0
  -18.3862  -11.9434  -20.7527 C   0  0  0  0  0  0  0  0  0  0  0  0
  -18.5374  -12.5747  -19.5390 C   0  0  0  0  0  0  0  0  0  0  0  0
  -19.8740  -12.1422  -18.5259 Cl  0  0  0  0  0  0  0  0  0  0  0  0
  -17.5947  -13.5265  -19.2084 C   0  0  0  0  0  0  0  0  0  0  0  0
  -17.7345  -14.1604  -18.0047 F   0  0  0  0  0  0  0  0  0  0  0  0
  -16.5558  -13.8195  -20.0659 C   0  0  0  0  0  0  0  0  0  0  0  0
  1  2  1  0
  2  3  1  0
  2  4  1  0
  2  5  1  0
  5  6  2  0
  5  7  2  0
  5  8  1  0
  9  8  1  6
  9 10  1  0
 10 11  1  0
 11 12  1  0
  9 13  1  0
 13 14  1  0
 14 15  2  0
 14 16  1  0
 16 17  1  6
 16 18  1  0
 18 19  1  0
 19 20  2  0
 20 21  1  0
 21 22  2  0
 22 23  1  0
 23 24  1  0
 24 25  2  0
 24 26  1  0
 22 27  1  0
 16 28  1  0
 28 29  1  0
 29 30  1  6
 30 31  2  0
 31 32  1  0
 32 33  2  0
 33 34  1  0
 34 35  1  0
 34 36  2  0
 29 37  1  0
 37 38  1  1
 38 39  2  0
 39 40  1  0
 40 41  2  0
 41 42  1  0
 41 43  1  0
 43 44  1  0
 43 45  2  0
 12 10  1  0
 37 13  1  0
 45 38  1  0
 27 19  1  0
 36 30  1  0
M  CHG  1  26  -1
M  END
>  <shape_align_shape_tanimoto>  (2) 
0.28730471840463495

>  <shape_align_color_tanimoto>  (2) 
0.03439363197922201

>  <metric>  (2) 
color

>  <metric_score>  (2) 
0.034

>  <template_pid>  (2) 
4ODE

>  <template_shape_score>  (2) 
0.287

>  <template_color_score>  (2) 
0.034

>  <template_combo_score>  (2) 
0.161

$$$$
4ODE_combo_pose
     RDKit          3D

 45 49  0  0  0  0  0  0  0  0999 V2000
  -17.1112  -23.5794  -24.2379 C   0  0  0  0  0  0  0  0  0  0  0  0
  -17.2280  -22.2629  -24.9326 C   0  0  0  0  0  0  0  0  0  0  0  0
  -18.2691  -21.4080  -24.2385 C   0  0  0  0  0  0  0  0  0  0  0  0
  -17.6854  -22.4136  -26.3667 C   0  0  0  0  0  0  0  0  0  0  0  0
  -15.5986  -21.4247  -24.8858 S   0  0  0  0  0  0  0  0  0  0  0  0
  -15.3414  -21.3420  -23.3884 O   0  0  0  0  0  0  0  0  0  0  0  0
  -14.6444  -22.4238  -25.3837 O   0  0  0  0  0  0  0  0  0  0  0  0
  -15.7962  -19.9320  -25.6924 C   0  0  0  0  0  0  0  0  0  0  0  0
  -14.7851  -18.9138  -25.9102 C   0  0  2  0  0  0  0  0  0  0  0  0
  -13.5450  -19.1355  -26.6863 C   0  0  0  0  0  0  0  0  0  0  0  0
  -13.7375  -19.5210  -28.1985 C   0  0  0  0  0  0  0  0  0  0  0  0
  -12.9418  -20.3192  -27.2362 C   0  0  0  0  0  0  0  0  0  0  0  0
  -14.5943  -17.9085  -24.8534 N   0  0  0  0  0  0  0  0  0  0  0  0
  -15.1080  -16.5567  -25.0542 C   0  0  0  0  0  0  0  0  0  0  0  0
  -16.1664  -16.4001  -25.7188 O   0  0  0  0  0  0  0  0  0  0  0  0
  -14.3899  -15.3717  -24.4808 C   0  0  1  0  0  0  0  0  0  0  0  0
  -13.7843  -14.7246  -25.7492 C   0  0  0  0  0  0  0  0  0  0  0  0
  -15.4602  -14.3945  -24.0453 C   0  0  0  0  0  0  0  0  0  0  0  0
  -14.9393  -13.1528  -23.4545 C   0  0  0  0  0  0  0  0  0  0  0  0
  -14.6000  -12.0580  -23.8144 N   0  0  0  0  0  0  0  0  0  0  0  0
  -14.1604  -11.0652  -23.0801 C   0  0  0  0  0  0  0  0  0  0  0  0
  -14.0755  -11.2985  -21.7393 C   0  0  0  0  0  0  0  0  0  0  0  0
  -13.6371  -10.4478  -20.6129 C   0  0  0  0  0  0  0  0  0  0  0  0
  -12.1815  -10.5776  -20.3491 C   0  0  0  0  0  0  0  0  0  0  0  0
  -11.4391  -11.3402  -21.0338 O   0  0  0  0  0  0  0  0  0  0  0  0
  -11.6690   -9.8116  -19.3010 O   0  0  0  0  0  0  0  0  0  0  0  0
  -14.6566  -13.0045  -21.5997 S   0  0  0  0  0  0  0  0  0  0  0  0
  -13.3441  -15.6622  -23.5018 C   0  0  0  0  0  0  0  0  0  0  0  0
  -12.9595  -17.0419  -23.1924 C   0  0  2  0  0  0  0  0  0  0  0  0
  -11.5453  -17.3474  -23.5528 C   0  0  0  0  0  0  0  0  0  0  0  0
  -10.6991  -17.9490  -22.6411 C   0  0  0  0  0  0  0  0  0  0  0  0
   -9.3646  -18.2350  -22.9551 C   0  0  0  0  0  0  0  0  0  0  0  0
   -8.8544  -17.9247  -24.1844 C   0  0  0  0  0  0  0  0  0  0  0  0
   -9.6817  -17.3232  -25.1104 C   0  0  0  0  0  0  0  0  0  0  0  0
   -9.0067  -16.9350  -26.6777 Cl  0  0  0  0  0  0  0  0  0  0  0  0
  -10.9993  -17.0471  -24.7835 C   0  0  0  0  0  0  0  0  0  0  0  0
  -13.9232  -18.1230  -23.6144 C   0  0  1  0  0  0  0  0  0  0  0  0
  -14.8337  -18.3300  -22.4494 C   0  0  0  0  0  0  0  0  0  0  0  0
  -16.0671  -17.7912  -22.3259 C   0  0  0  0  0  0  0  0  0  0  0  0
  -16.8591  -17.9915  -21.1906 C   0  0  0  0  0  0  0  0  0  0  0  0
  -16.3905  -18.7630  -20.1426 C   0  0  0  0  0  0  0  0  0  0  0  0
  -17.4091  -18.9991  -18.7241 Cl  0  0  0  0  0  0  0  0  0  0  0  0
  -15.1481  -19.3095  -20.2602 C   0  0  0  0  0  0  0  0  0  0  0  0
  -14.6562  -20.0767  -19.2425 F   0  0  0  0  0  0  0  0  0  0  0  0
  -14.3740  -19.1098  -21.3772 C   0  0  0  0  0  0  0  0  0  0  0  0
  1  2  1  0
  2  3  1  0
  2  4  1  0
  2  5  1  0
  5  6  2  0
  5  7  2  0
  5  8  1  0
  9  8  1  1
  9 10  1  0
 10 11  1  0
 11 12  1  0
  9 13  1  0
 13 14  1  0
 14 15  2  0
 14 16  1  0
 16 17  1  6
 16 18  1  0
 18 19  1  0
 19 20  2  0
 20 21  1  0
 21 22  2  0
 22 23  1  0
 23 24  1  0
 24 25  2  0
 24 26  1  0
 22 27  1  0
 16 28  1  0
 28 29  1  0
 29 30  1  6
 30 31  2  0
 31 32  1  0
 32 33  2  0
 33 34  1  0
 34 35  1  0
 34 36  2  0
 29 37  1  0
 37 38  1  1
 38 39  2  0
 39 40  1  0
 40 41  2  0
 41 42  1  0
 41 43  1  0
 43 44  1  0
 43 45  2  0
 12 10  1  0
 37 13  1  0
 45 38  1  0
 27 19  1  0
 36 30  1  0
M  CHG  1  26  -1
M  END
>  <shape_align_shape_tanimoto>  (3) 
0.34556128722866097

>  <shape_align_color_tanimoto>  (3) 
0.012332443994504576

>  <metric>  (3) 
combo

>  <metric_score>  (3) 
0.179

>  <template_pid>  (3) 
4ODE

>  <template_shape_score>  (3) 
0.346

>  <template_color_score>  (3) 
0.012

>  <template_combo_score>  (3) 
0.179

$$$$
