6OM4_shape_pose
     RDKit          3D

 76 78  0  0  0  0  0  0  0  0999 V2000
   -2.7986   43.9788  -18.8918 C   0  0  0  0  0  0  0  0  0  0  0  0
   -1.5473   43.2018  -17.8357 S   0  0  0  0  0  0  0  0  0  0  0  0
   -0.0367   44.2560  -17.8910 C   0  0  0  0  0  0  0  0  0  0  0  0
    0.5790   44.2477  -19.2580 C   0  0  0  0  0  0  0  0  0  0  0  0
    1.8266   45.1316  -19.2571 C   0  0  2  0  0  0  0  0  0  0  0  0
    2.4008   45.0650  -20.6209 N   0  0  0  0  0  0  0  0  0  0  0  0
    2.4304   46.1931  -21.4791 C   0  0  0  0  0  0  0  0  0  0  0  0
    1.9327   47.2645  -21.0035 O   0  0  0  0  0  0  0  0  0  0  0  0
    2.8777   44.6483  -18.3477 C   0  0  0  0  0  0  0  0  0  0  0  0
    3.8567   44.0404  -18.9480 O   0  0  0  0  0  0  0  0  0  0  0  0
    2.9330   44.7747  -16.9512 N   0  0  0  0  0  0  0  0  0  0  0  0
    4.1157   44.1733  -16.2933 C   0  0  1  0  0  0  0  0  0  0  0  0
    4.9720   45.3561  -15.7928 C   0  0  0  0  0  0  0  0  0  0  0  0
    6.2548   45.0139  -15.1579 C   0  0  0  0  0  0  0  0  0  0  0  0
    7.3171   44.4084  -15.9975 C   0  0  0  0  0  0  0  0  0  0  0  0
    7.0749   43.1460  -16.5989 N   0  0  0  0  0  0  0  0  0  0  0  0
    7.0094   41.8980  -15.9305 C   0  0  0  0  0  0  0  0  0  0  0  0
    7.3880   41.8974  -14.6809 N   0  0  0  0  0  0  0  0  0  0  0  0
    6.5752   40.6910  -16.5391 N   0  0  0  0  0  0  0  0  0  0  0  0
    3.6077   43.4522  -15.1015 C   0  0  0  0  0  0  0  0  0  0  0  0
    4.3716   42.6592  -14.4406 O   0  0  0  0  0  0  0  0  0  0  0  0
    2.2906   43.5535  -14.5672 N   0  0  0  0  0  0  0  0  0  0  0  0
    1.9957   42.7985  -13.3991 C   0  0  2  0  0  0  0  0  0  0  0  0
    0.6118   42.3523  -13.3515 C   0  0  0  0  0  0  0  0  0  0  0  0
    0.2733   41.6540  -12.3263 O   0  0  0  0  0  0  0  0  0  0  0  0
   -0.4185   42.5868  -14.2813 N   0  0  0  0  0  0  0  0  0  0  0  0
   -1.7452   42.1030  -14.1052 C   0  0  0  0  0  0  0  0  0  0  0  0
   -1.8974   40.6326  -14.0224 C   0  0  0  0  0  0  0  0  0  0  0  0
   -0.9327   39.8290  -14.1277 O   0  0  0  0  0  0  0  0  0  0  0  0
   -3.2496   40.1732  -13.8041 N   0  0  0  0  0  0  0  0  0  0  0  0
   -3.5721   38.7455  -13.6947 C   0  0  1  0  0  0  0  0  0  0  0  0
   -3.1278   37.9889  -14.8979 C   0  0  0  0  0  0  0  0  0  0  0  0
   -3.5250   36.5729  -14.8011 C   0  0  0  0  0  0  0  0  0  0  0  0
   -3.0978   35.5486  -15.6932 N   0  0  0  0  0  0  0  0  0  0  0  0
   -4.3102   36.1427  -13.8722 O   0  0  0  0  0  0  0  0  0  0  0  0
   -2.9537   38.2436  -12.4108 C   0  0  0  0  0  0  0  0  0  0  0  0
   -2.9024   37.0574  -12.0662 O   0  0  0  0  0  0  0  0  0  0  0  0
   -2.3749   39.1967  -11.5060 N   0  0  0  0  0  0  0  0  0  0  0  0
   -1.7420   38.8275  -10.2613 C   0  0  1  0  0  0  0  0  0  0  0  0
   -0.3068   39.2105  -10.2731 C   0  0  0  0  0  0  0  0  0  0  0  0
   -2.5204   39.3095   -9.0956 C   0  0  0  0  0  0  0  0  0  0  0  0
   -3.7002   39.7816   -9.2081 O   0  0  0  0  0  0  0  0  0  0  0  0
   -1.9136   39.2371   -7.8305 N   0  0  0  0  0  0  0  0  0  0  0  0
   -2.4902   39.6335   -6.5677 C   0  0  1  0  0  0  0  0  0  0  0  0
   -2.0638   38.8551   -5.3891 C   0  0  0  0  0  0  0  0  0  0  0  0
   -2.3995   37.3947   -5.5128 C   0  0  0  0  0  0  0  0  0  0  0  0
   -2.9956   36.9480   -6.5344 O   0  0  0  0  0  0  0  0  0  0  0  0
   -2.0159   36.5813   -4.4495 O   0  0  0  0  0  0  0  0  0  0  0  0
   -2.2495   41.1037   -6.3268 C   0  0  0  0  0  0  0  0  0  0  0  0
   -1.7728   41.7697   -7.2717 O   0  0  0  0  0  0  0  0  0  0  0  0
   -2.5590   41.7107   -5.0640 N   0  0  0  0  0  0  0  0  0  0  0  0
   -2.3079   43.4045   -4.8279 P   0  0  1  0  0  5  0  0  0  0  0  0
   -3.4828   44.1003   -5.5741 O   0  0  0  0  0  0  0  0  0  0  0  0
   -2.4952   43.8228   -3.2211 O   0  0  0  0  0  0  0  0  0  0  0  0
   -0.9309   44.0267   -5.5508 O   0  0  0  0  0  0  0  0  0  0  0  0
   -1.0398   45.4405   -5.6666 C   0  0  0  0  0  0  0  0  0  0  0  0
   -0.5984   45.8325   -7.0212 C   0  0  1  0  0  0  0  0  0  0  0  0
   -0.6868   47.2274   -7.2744 O   0  0  0  0  0  0  0  0  0  0  0  0
   -0.0098   47.2543   -8.5012 C   0  0  1  0  0  0  0  0  0  0  0  0
    0.0424   48.5426   -9.0964 N   0  0  0  0  0  0  0  0  0  0  0  0
    0.7183   49.6380   -8.7662 C   0  0  0  0  0  0  0  0  0  0  0  0
    0.4458   50.6405   -9.6419 N   0  0  0  0  0  0  0  0  0  0  0  0
   -0.4290   50.1718  -10.5599 C   0  0  0  0  0  0  0  0  0  0  0  0
   -1.0708   50.6742  -11.6673 C   0  0  0  0  0  0  0  0  0  0  0  0
   -0.8216   52.0450  -12.0447 N   0  0  0  0  0  0  0  0  0  0  0  0
   -1.9154   49.9423  -12.4074 N   0  0  0  0  0  0  0  0  0  0  0  0
   -2.1425   48.6803  -12.0582 C   0  0  0  0  0  0  0  0  0  0  0  0
   -1.5294   48.1659  -10.9819 N   0  0  0  0  0  0  0  0  0  0  0  0
   -0.6732   48.8762  -10.2154 C   0  0  0  0  0  0  0  0  0  0  0  0
    1.3198   46.6616   -8.1068 C   0  0  2  0  0  0  0  0  0  0  0  0
    2.0233   46.1811   -9.2075 O   0  0  0  0  0  0  0  0  0  0  0  0
    0.8557   45.5032   -7.2157 C   0  0  2  0  0  0  0  0  0  0  0  0
    0.9366   44.3517   -7.9889 O   0  0  0  0  0  0  0  0  0  0  0  0
    2.3702   43.5751  -12.1257 C   0  0  1  0  0  0  0  0  0  0  0  0
    2.1418   42.6217  -10.9676 C   0  0  0  0  0  0  0  0  0  0  0  0
    3.7340   43.8274  -12.1861 O   0  0  0  0  0  0  0  0  0  0  0  0
  1  2  1  0
  2  3  1  0
  3  4  1  0
  5  4  1  6
  5  6  1  0
  6  7  1  0
  7  8  2  0
  5  9  1  0
  9 10  2  0
  9 11  1  0
 11 12  1  0
 12 13  1  1
 13 14  1  0
 14 15  1  0
 15 16  1  0
 16 17  1  0
 17 18  2  0
 17 19  1  0
 12 20  1  0
 20 21  2  0
 20 22  1  0
 23 22  1  6
 23 24  1  0
 24 25  2  0
 24 26  1  0
 26 27  1  0
 27 28  1  0
 28 29  2  0
 28 30  1  0
 30 31  1  0
 31 32  1  6
 32 33  1  0
 33 34  1  0
 33 35  2  0
 31 36  1  0
 36 37  2  0
 36 38  1  0
 38 39  1  0
 39 40  1  6
 39 41  1  0
 41 42  2  0
 41 43  1  0
 43 44  1  0
 44 45  1  1
 45 46  1  0
 46 47  2  0
 46 48  1  0
 44 49  1  0
 49 50  2  0
 49 51  1  0
 51 52  1  0
 52 53  2  0
 52 54  1  1
 52 55  1  0
 55 56  1  0
 57 56  1  1
 57 58  1  0
 58 59  1  0
 59 60  1  1
 60 61  1  0
 61 62  2  0
 62 63  1  0
 63 64  2  0
 64 65  1  0
 64 66  1  0
 66 67  2  0
 67 68  1  0
 68 69  2  0
 59 70  1  0
 70 71  1  6
 70 72  1  0
 72 73  1  6
 23 74  1  0
 74 75  1  1
 74 76  1  0
 72 57  1  0
 69 60  1  0
 69 63  1  0
M  END
>  <shape_align_shape_tanimoto>  (1) 
0.28700050970538155

>  <shape_align_color_tanimoto>  (1) 
0.018649027748874333

>  <metric>  (1) 
shape

>  <metric_score>  (1) 
0.287

>  <template_pid>  (1) 
6OM4

>  <template_shape_score>  (1) 
0.287

>  <template_color_score>  (1) 
0.019

>  <template_combo_score>  (1) 
0.153

$$$$
6OM4_color_pose
     RDKit          3D

 76 78  0  0  0  0  0  0  0  0999 V2000
   -1.8558   51.6214  -12.8277 C   0  0  0  0  0  0  0  0  0  0  0  0
   -0.1874   51.5397  -12.2065 S   0  0  0  0  0  0  0  0  0  0  0  0
    0.2351   50.1922  -11.1418 C   0  0  0  0  0  0  0  0  0  0  0  0
    0.4474   48.8337  -11.6503 C   0  0  0  0  0  0  0  0  0  0  0  0
   -0.5567   48.0048  -12.3349 C   0  0  2  0  0  0  0  0  0  0  0  0
   -1.0936   48.4684  -13.5756 N   0  0  0  0  0  0  0  0  0  0  0  0
   -0.4570   48.0345  -14.7882 C   0  0  0  0  0  0  0  0  0  0  0  0
    0.5438   47.2744  -14.8262 O   0  0  0  0  0  0  0  0  0  0  0  0
   -1.6684   47.5548  -11.4349 C   0  0  0  0  0  0  0  0  0  0  0  0
   -2.8865   47.5950  -11.8220 O   0  0  0  0  0  0  0  0  0  0  0  0
   -1.4508   47.0608  -10.1064 N   0  0  0  0  0  0  0  0  0  0  0  0
   -2.6056   46.6658   -9.3579 C   0  0  1  0  0  0  0  0  0  0  0  0
   -3.5122   47.7237   -8.8723 C   0  0  0  0  0  0  0  0  0  0  0  0
   -2.9730   48.7658   -7.9433 C   0  0  0  0  0  0  0  0  0  0  0  0
   -2.4076   48.3207   -6.6455 C   0  0  0  0  0  0  0  0  0  0  0  0
   -1.2242   47.5229   -6.6544 N   0  0  0  0  0  0  0  0  0  0  0  0
   -0.7923   46.9904   -5.3688 C   0  0  0  0  0  0  0  0  0  0  0  0
   -1.3344   47.4332   -4.2573 N   0  0  0  0  0  0  0  0  0  0  0  0
    0.2354   45.9710   -5.3367 N   0  0  0  0  0  0  0  0  0  0  0  0
   -3.3707   45.5546  -10.0658 C   0  0  0  0  0  0  0  0  0  0  0  0
   -4.5210   45.3101   -9.5759 O   0  0  0  0  0  0  0  0  0  0  0  0
   -2.8330   44.8474  -11.1797 N   0  0  0  0  0  0  0  0  0  0  0  0
   -3.7123   43.8035  -11.7319 C   0  0  2  0  0  0  0  0  0  0  0  0
   -3.4599   42.5181  -10.9920 C   0  0  0  0  0  0  0  0  0  0  0  0
   -4.1964   41.5332  -11.2802 O   0  0  0  0  0  0  0  0  0  0  0  0
   -2.4182   42.4378   -9.9937 N   0  0  0  0  0  0  0  0  0  0  0  0
   -2.1429   41.2547   -9.2316 C   0  0  0  0  0  0  0  0  0  0  0  0
   -1.7600   40.1083  -10.0308 C   0  0  0  0  0  0  0  0  0  0  0  0
   -1.5565   39.0088   -9.3821 O   0  0  0  0  0  0  0  0  0  0  0  0
   -1.5739   40.0146  -11.4365 N   0  0  0  0  0  0  0  0  0  0  0  0
   -1.2103   38.7236  -11.9720 C   0  0  1  0  0  0  0  0  0  0  0  0
   -2.1812   38.2745  -13.0581 C   0  0  0  0  0  0  0  0  0  0  0  0
   -3.5762   38.1629  -12.5371 C   0  0  0  0  0  0  0  0  0  0  0  0
   -4.5905   37.7741  -13.4487 N   0  0  0  0  0  0  0  0  0  0  0  0
   -3.8942   38.3952  -11.3413 O   0  0  0  0  0  0  0  0  0  0  0  0
    0.1601   38.7334  -12.5155 C   0  0  0  0  0  0  0  0  0  0  0  0
    0.6421   37.5873  -12.8491 O   0  0  0  0  0  0  0  0  0  0  0  0
    0.9916   39.8728  -12.7041 N   0  0  0  0  0  0  0  0  0  0  0  0
    2.3160   39.6294  -13.2331 C   0  0  1  0  0  0  0  0  0  0  0  0
    2.2885   39.7674  -14.7762 C   0  0  0  0  0  0  0  0  0  0  0  0
    3.3756   40.5074  -12.6943 C   0  0  0  0  0  0  0  0  0  0  0  0
    4.5834   40.1532  -12.9812 O   0  0  0  0  0  0  0  0  0  0  0  0
    3.1200   41.6844  -11.9078 N   0  0  0  0  0  0  0  0  0  0  0  0
    4.1404   42.5541  -11.3992 C   0  0  1  0  0  0  0  0  0  0  0  0
    4.8425   41.9883  -10.2081 C   0  0  0  0  0  0  0  0  0  0  0  0
    3.8279   41.7648   -9.1211 C   0  0  0  0  0  0  0  0  0  0  0  0
    4.1691   41.2830   -8.0088 O   0  0  0  0  0  0  0  0  0  0  0  0
    2.4712   42.0857   -9.3057 O   0  0  0  0  0  0  0  0  0  0  0  0
    5.0811   43.0625  -12.4327 C   0  0  0  0  0  0  0  0  0  0  0  0
    6.1019   43.7404  -12.0542 O   0  0  0  0  0  0  0  0  0  0  0  0
    4.9552   42.8666  -13.8313 N   0  0  0  0  0  0  0  0  0  0  0  0
    6.1415   43.5006  -14.9681 P   0  0  1  0  0  5  0  0  0  0  0  0
    6.6675   44.7999  -14.4190 O   0  0  0  0  0  0  0  0  0  0  0  0
    7.4581   42.4036  -15.0871 O   0  0  0  0  0  0  0  0  0  0  0  0
    5.5571   43.6960  -16.5170 O   0  0  0  0  0  0  0  0  0  0  0  0
    4.1977   43.9522  -16.6369 C   0  0  0  0  0  0  0  0  0  0  0  0
    3.8507   43.6394  -18.0816 C   0  0  1  0  0  0  0  0  0  0  0  0
    2.5377   43.8224  -18.3971 O   0  0  0  0  0  0  0  0  0  0  0  0
    2.4361   44.1695  -19.7487 C   0  0  1  0  0  0  0  0  0  0  0  0
    1.7480   45.4340  -19.9214 N   0  0  0  0  0  0  0  0  0  0  0  0
    2.1575   46.6108  -20.4149 C   0  0  0  0  0  0  0  0  0  0  0  0
    1.1688   47.5317  -20.3789 N   0  0  0  0  0  0  0  0  0  0  0  0
    0.1073   46.8985  -19.8422 C   0  0  0  0  0  0  0  0  0  0  0  0
   -1.1788   47.3645  -19.5657 C   0  0  0  0  0  0  0  0  0  0  0  0
   -1.4822   48.7225  -19.8836 N   0  0  0  0  0  0  0  0  0  0  0  0
   -2.0541   46.5079  -19.0164 N   0  0  0  0  0  0  0  0  0  0  0  0
   -1.7045   45.2329  -18.7382 C   0  0  0  0  0  0  0  0  0  0  0  0
   -0.4651   44.7425  -18.9917 N   0  0  0  0  0  0  0  0  0  0  0  0
    0.4439   45.5953  -19.5508 C   0  0  0  0  0  0  0  0  0  0  0  0
    3.8354   44.2917  -20.2896 C   0  0  2  0  0  0  0  0  0  0  0  0
    4.3000   43.0199  -20.6631 O   0  0  0  0  0  0  0  0  0  0  0  0
    4.5709   44.6450  -18.9686 C   0  0  2  0  0  0  0  0  0  0  0  0
    5.9356   44.4106  -19.0741 O   0  0  0  0  0  0  0  0  0  0  0  0
   -3.4781   43.7161  -13.2072 C   0  0  1  0  0  0  0  0  0  0  0  0
   -3.7652   45.0792  -13.8131 C   0  0  0  0  0  0  0  0  0  0  0  0
   -2.1577   43.3908  -13.5305 O   0  0  0  0  0  0  0  0  0  0  0  0
  1  2  1  0
  2  3  1  0
  3  4  1  0
  5  4  1  1
  5  6  1  0
  6  7  1  0
  7  8  2  0
  5  9  1  0
  9 10  2  0
  9 11  1  0
 11 12  1  0
 12 13  1  6
 13 14  1  0
 14 15  1  0
 15 16  1  0
 16 17  1  0
 17 18  2  0
 17 19  1  0
 12 20  1  0
 20 21  2  0
 20 22  1  0
 23 22  1  1
 23 24  1  0
 24 25  2  0
 24 26  1  0
 26 27  1  0
 27 28  1  0
 28 29  2  0
 28 30  1  0
 30 31  1  0
 31 32  1  6
 32 33  1  0
 33 34  1  0
 33 35  2  0
 31 36  1  0
 36 37  2  0
 36 38  1  0
 38 39  1  0
 39 40  1  6
 39 41  1  0
 41 42  2  0
 41 43  1  0
 43 44  1  0
 44 45  1  1
 45 46  1  0
 46 47  2  0
 46 48  1  0
 44 49  1  0
 49 50  2  0
 49 51  1  0
 51 52  1  0
 52 53  2  0
 52 54  1  6
 52 55  1  0
 55 56  1  0
 57 56  1  1
 57 58  1  0
 58 59  1  0
 59 60  1  1
 60 61  1  0
 61 62  2  0
 62 63  1  0
 63 64  2  0
 64 65  1  0
 64 66  1  0
 66 67  2  0
 67 68  1  0
 68 69  2  0
 59 70  1  0
 70 71  1  1
 70 72  1  0
 72 73  1  6
 23 74  1  0
 74 75  1  6
 74 76  1  0
 72 57  1  0
 69 60  1  0
 69 63  1  0
M  END
>  <shape_align_shape_tanimoto>  (2) 
0.23118278535711387

>  <shape_align_color_tanimoto>  (2) 
0.052096306616444321

>  <metric>  (2) 
color

>  <metric_score>  (2) 
0.052

>  <template_pid>  (2) 
6OM4

>  <template_shape_score>  (2) 
0.231

>  <template_color_score>  (2) 
0.052

>  <template_combo_score>  (2) 
0.142

$$$$
6OM4_combo_pose
     RDKit          3D

 76 78  0  0  0  0  0  0  0  0999 V2000
    2.8475   47.5978   -9.7299 C   0  0  0  0  0  0  0  0  0  0  0  0
    3.9326   46.3486   -8.9186 S   0  0  0  0  0  0  0  0  0  0  0  0
    3.0359   44.7292   -8.8340 C   0  0  0  0  0  0  0  0  0  0  0  0
    2.8803   44.1540  -10.2152 C   0  0  0  0  0  0  0  0  0  0  0  0
    2.1572   42.8460  -10.3005 C   0  0  2  0  0  0  0  0  0  0  0  0
    2.1465   42.4036  -11.7016 N   0  0  0  0  0  0  0  0  0  0  0  0
    2.7468   41.1414  -12.0728 C   0  0  0  0  0  0  0  0  0  0  0  0
    3.2948   40.3751  -11.2511 O   0  0  0  0  0  0  0  0  0  0  0  0
    0.6992   42.9632   -9.8848 C   0  0  0  0  0  0  0  0  0  0  0  0
    0.4953   43.5286   -8.7768 O   0  0  0  0  0  0  0  0  0  0  0  0
   -0.3353   42.4487  -10.7194 N   0  0  0  0  0  0  0  0  0  0  0  0
   -1.7329   42.5051  -10.4539 C   0  0  1  0  0  0  0  0  0  0  0  0
   -2.6882   42.5421  -11.5756 C   0  0  0  0  0  0  0  0  0  0  0  0
   -2.6532   41.3610  -12.5212 C   0  0  0  0  0  0  0  0  0  0  0  0
   -3.7546   41.6618  -13.5700 C   0  0  0  0  0  0  0  0  0  0  0  0
   -3.8696   40.6106  -14.5536 N   0  0  0  0  0  0  0  0  0  0  0  0
   -2.7878   40.4177  -15.4865 C   0  0  0  0  0  0  0  0  0  0  0  0
   -1.6816   41.0751  -15.4309 N   0  0  0  0  0  0  0  0  0  0  0  0
   -2.9384   39.4519  -16.5280 N   0  0  0  0  0  0  0  0  0  0  0  0
   -2.0587   41.4131   -9.4325 C   0  0  0  0  0  0  0  0  0  0  0  0
   -3.2899   41.1354   -9.1930 O   0  0  0  0  0  0  0  0  0  0  0  0
   -1.0641   40.7067   -8.7359 N   0  0  0  0  0  0  0  0  0  0  0  0
   -1.3614   39.6828   -7.7378 C   0  0  2  0  0  0  0  0  0  0  0  0
   -1.6573   40.3728   -6.4021 C   0  0  0  0  0  0  0  0  0  0  0  0
   -1.8109   39.6859   -5.3619 O   0  0  0  0  0  0  0  0  0  0  0  0
   -1.7592   41.8218   -6.3760 N   0  0  0  0  0  0  0  0  0  0  0  0
   -2.0500   42.5703   -5.1806 C   0  0  0  0  0  0  0  0  0  0  0  0
   -2.1759   44.0199   -5.4060 C   0  0  0  0  0  0  0  0  0  0  0  0
   -2.4705   44.7215   -4.3586 O   0  0  0  0  0  0  0  0  0  0  0  0
   -2.0178   44.7267   -6.6250 N   0  0  0  0  0  0  0  0  0  0  0  0
   -2.1894   46.1629   -6.7729 C   0  0  1  0  0  0  0  0  0  0  0  0
   -0.9842   46.9657   -7.0927 C   0  0  0  0  0  0  0  0  0  0  0  0
    0.1278   46.8989   -6.1271 C   0  0  0  0  0  0  0  0  0  0  0  0
    1.2074   47.8461   -6.1516 N   0  0  0  0  0  0  0  0  0  0  0  0
    0.1929   45.9948   -5.2060 O   0  0  0  0  0  0  0  0  0  0  0  0
   -3.2884   46.3376   -7.7774 C   0  0  0  0  0  0  0  0  0  0  0  0
   -3.8123   45.2344   -8.1772 O   0  0  0  0  0  0  0  0  0  0  0  0
   -3.7413   47.6047   -8.2698 N   0  0  0  0  0  0  0  0  0  0  0  0
   -4.8184   47.5706   -9.2271 C   0  0  1  0  0  0  0  0  0  0  0  0
   -6.1436   47.9970   -8.5514 C   0  0  0  0  0  0  0  0  0  0  0  0
   -4.6453   48.3016  -10.4817 C   0  0  0  0  0  0  0  0  0  0  0  0
   -5.6059   48.1765  -11.3434 O   0  0  0  0  0  0  0  0  0  0  0  0
   -3.5760   49.1313  -10.8878 N   0  0  0  0  0  0  0  0  0  0  0  0
   -3.6504   49.7575  -12.2405 C   0  0  1  0  0  0  0  0  0  0  0  0
   -4.0633   51.2143  -11.9653 C   0  0  0  0  0  0  0  0  0  0  0  0
   -4.2234   51.9935  -13.1973 C   0  0  0  0  0  0  0  0  0  0  0  0
   -4.0501   51.6720  -14.3795 O   0  0  0  0  0  0  0  0  0  0  0  0
   -4.6561   53.3457  -12.9985 O   0  0  0  0  0  0  0  0  0  0  0  0
   -2.3679   49.6440  -12.9632 C   0  0  0  0  0  0  0  0  0  0  0  0
   -2.2759   49.9120  -14.2317 O   0  0  0  0  0  0  0  0  0  0  0  0
   -1.1311   49.2479  -12.3677 N   0  0  0  0  0  0  0  0  0  0  0  0
    0.2827   49.1756  -13.4222 P   0  0  1  0  0  5  0  0  0  0  0  0
    0.5216   50.4525  -14.1726 O   0  0  0  0  0  0  0  0  0  0  0  0
    1.6482   48.7972  -12.4979 O   0  0  0  0  0  0  0  0  0  0  0  0
    0.0802   47.9285  -14.5904 O   0  0  0  0  0  0  0  0  0  0  0  0
    1.2556   47.7692  -15.3180 C   0  0  0  0  0  0  0  0  0  0  0  0
    1.2636   46.5295  -16.1792 C   0  0  1  0  0  0  0  0  0  0  0  0
    2.4355   46.3632  -16.9073 O   0  0  0  0  0  0  0  0  0  0  0  0
    2.8511   45.0573  -16.8372 C   0  0  1  0  0  0  0  0  0  0  0  0
    3.9679   45.0176  -15.8782 N   0  0  0  0  0  0  0  0  0  0  0  0
    4.6160   46.0707  -15.3090 C   0  0  0  0  0  0  0  0  0  0  0  0
    5.5928   45.5926  -14.4818 N   0  0  0  0  0  0  0  0  0  0  0  0
    5.5610   44.2311  -14.5289 C   0  0  0  0  0  0  0  0  0  0  0  0
    6.3531   43.3153  -13.8655 C   0  0  0  0  0  0  0  0  0  0  0  0
    7.3778   43.7542  -12.9808 N   0  0  0  0  0  0  0  0  0  0  0  0
    6.0897   42.0037  -14.1086 N   0  0  0  0  0  0  0  0  0  0  0  0
    5.1008   41.6522  -14.9581 C   0  0  0  0  0  0  0  0  0  0  0  0
    4.3260   42.5515  -15.6073 N   0  0  0  0  0  0  0  0  0  0  0  0
    4.5424   43.8726  -15.4036 C   0  0  0  0  0  0  0  0  0  0  0  0
    1.7006   44.2317  -16.2952 C   0  0  2  0  0  0  0  0  0  0  0  0
    0.8680   43.9003  -17.3789 O   0  0  0  0  0  0  0  0  0  0  0  0
    1.0060   45.2571  -15.4131 C   0  0  2  0  0  0  0  0  0  0  0  0
   -0.3609   44.9739  -15.2849 O   0  0  0  0  0  0  0  0  0  0  0  0
   -0.3952   38.5742   -7.6406 C   0  0  1  0  0  0  0  0  0  0  0  0
    1.0468   38.9916   -7.5064 C   0  0  0  0  0  0  0  0  0  0  0  0
   -0.7925   37.6779   -6.6348 O   0  0  0  0  0  0  0  0  0  0  0  0
  1  2  1  0
  2  3  1  0
  3  4  1  0
  5  4  1  6
  5  6  1  0
  6  7  1  0
  7  8  2  0
  5  9  1  0
  9 10  2  0
  9 11  1  0
 11 12  1  0
 12 13  1  6
 13 14  1  0
 14 15  1  0
 15 16  1  0
 16 17  1  0
 17 18  2  0
 17 19  1  0
 12 20  1  0
 20 21  2  0
 20 22  1  0
 23 22  1  6
 23 24  1  0
 24 25  2  0
 24 26  1  0
 26 27  1  0
 27 28  1  0
 28 29  2  0
 28 30  1  0
 30 31  1  0
 31 32  1  6
 32 33  1  0
 33 34  1  0
 33 35  2  0
 31 36  1  0
 36 37  2  0
 36 38  1  0
 38 39  1  0
 39 40  1  1
 39 41  1  0
 41 42  2  0
 41 43  1  0
 43 44  1  0
 44 45  1  1
 45 46  1  0
 46 47  2  0
 46 48  1  0
 44 49  1  0
 49 50  2  0
 49 51  1  0
 51 52  1  0
 52 53  2  0
 52 54  1  1
 52 55  1  0
 55 56  1  0
 57 56  1  1
 57 58  1  0
 58 59  1  0
 59 60  1  1
 60 61  1  0
 61 62  2  0
 62 63  1  0
 63 64  2  0
 64 65  1  0
 64 66  1  0
 66 67  2  0
 67 68  1  0
 68 69  2  0
 59 70  1  0
 70 71  1  6
 70 72  1  0
 72 73  1  6
 23 74  1  0
 74 75  1  1
 74 76  1  0
 72 57  1  0
 69 60  1  0
 69 63  1  0
M  END
>  <shape_align_shape_tanimoto>  (3) 
0.27259151334434117

>  <shape_align_color_tanimoto>  (3) 
0.047336515758108579

>  <metric>  (3) 
combo

>  <metric_score>  (3) 
0.160

>  <template_pid>  (3) 
6OM4

>  <template_shape_score>  (3) 
0.273

>  <template_color_score>  (3) 
0.047

>  <template_combo_score>  (3) 
0.160

$$$$
