4WET_shape_pose
     RDKit          3D

 31 33  0  0  0  0  0  0  0  0999 V2000
   36.3724   97.5881  189.5882 C   0  0  0  0  0  0  0  0  0  0  0  0
   35.5500   98.6481  190.2638 C   0  0  0  0  0  0  0  0  0  0  0  0
   34.3493   98.9996  189.8348 N   0  0  0  0  0  0  0  0  0  0  0  0
   33.6129   99.7858  190.2463 C   0  0  0  0  0  0  0  0  0  0  0  0
   32.2642  100.4022  190.0264 C   0  0  0  0  0  0  0  0  0  0  0  0
   31.7856  101.3875  190.8549 C   0  0  0  0  0  0  0  0  0  0  0  0
   30.5146  101.8969  190.5632 C   0  0  0  0  0  0  0  0  0  0  0  0
   29.8017  101.4183  189.4957 C   0  0  0  0  0  0  0  0  0  0  0  0
   28.4442  101.9108  189.1233 C   0  0  0  0  0  0  0  0  0  0  0  0
   27.5010  101.1235  189.7570 F   0  0  0  0  0  0  0  0  0  0  0  0
   28.2948  101.8923  187.7531 F   0  0  0  0  0  0  0  0  0  0  0  0
   28.3035  103.1982  189.5815 F   0  0  0  0  0  0  0  0  0  0  0  0
   30.3255  100.4165  188.6795 C   0  0  0  0  0  0  0  0  0  0  0  0
   31.5816   99.8956  188.9473 C   0  0  0  0  0  0  0  0  0  0  0  0
   34.6172  100.4357  191.7215 S   0  0  0  0  0  0  0  0  0  0  0  0
   35.9510   99.3485  191.3743 C   0  0  0  0  0  0  0  0  0  0  0  0
   37.1684   99.3283  192.2063 C   0  0  0  0  0  0  0  0  0  0  0  0
   37.1520  100.1528  193.1687 O   0  0  0  0  0  0  0  0  0  0  0  0
   38.2836   98.5285  192.0455 N   0  0  0  0  0  0  0  0  0  0  0  0
   39.3994   98.6175  192.9138 C   0  0  1  0  0  0  0  0  0  0  0  0
   39.9003   99.9840  193.2866 C   0  0  0  0  0  0  0  0  0  0  0  0
   40.3475  100.7351  192.1145 C   0  0  0  0  0  0  0  0  0  0  0  0
   41.6702  100.5851  191.6933 C   0  0  0  0  0  0  0  0  0  0  0  0
   42.1790  101.2588  190.6047 C   0  0  0  0  0  0  0  0  0  0  0  0
   41.3967  102.1241  189.8702 C   0  0  0  0  0  0  0  0  0  0  0  0
   41.9413  102.7859  188.7801 O   0  0  0  0  0  0  0  0  0  0  0  0
   40.0872  102.2898  190.2657 C   0  0  0  0  0  0  0  0  0  0  0  0
   39.5833  101.6021  191.3699 C   0  0  0  0  0  0  0  0  0  0  0  0
   39.1747   97.8363  194.1382 C   0  0  0  0  0  0  0  0  0  0  0  0
   40.2076   97.5339  194.8231 O   0  0  0  0  0  0  0  0  0  0  0  0
   37.9017   97.4459  194.5314 O   0  0  0  0  0  0  0  0  0  0  0  0
  1  2  1  0
  2  3  1  0
  3  4  2  0
  4  5  1  0
  5  6  2  0
  6  7  1  0
  7  8  2  0
  8  9  1  0
  9 10  1  0
  9 11  1  0
  9 12  1  0
  8 13  1  0
 13 14  2  0
  4 15  1  0
 15 16  1  0
 16 17  1  0
 17 18  2  0
 17 19  1  0
 19 20  1  0
 20 21  1  1
 21 22  1  0
 22 23  2  0
 23 24  1  0
 24 25  2  0
 25 26  1  0
 25 27  1  0
 27 28  2  0
 20 29  1  0
 29 30  2  0
 29 31  1  0
 16  2  2  0
 28 22  1  0
 14  5  1  0
M  CHG  1  31  -1
M  END
>  <shape_align_shape_tanimoto>  (1) 
0.57212819386022462

>  <shape_align_color_tanimoto>  (1) 
0.020963665886359742

>  <metric>  (1) 
shape

>  <metric_score>  (1) 
0.572

>  <template_pid>  (1) 
4WET

>  <template_shape_score>  (1) 
0.572

>  <template_color_score>  (1) 
0.021

>  <template_combo_score>  (1) 
0.297

$$$$
4WET_color_pose
     RDKit          3D

 31 33  0  0  0  0  0  0  0  0999 V2000
   39.7361   99.7897  194.5486 C   0  0  0  0  0  0  0  0  0  0  0  0
   39.1916   99.7926  193.1369 C   0  0  0  0  0  0  0  0  0  0  0  0
   37.8964   99.7261  192.8851 N   0  0  0  0  0  0  0  0  0  0  0  0
   37.3531   99.7202  191.8509 C   0  0  0  0  0  0  0  0  0  0  0  0
   35.9397   99.6539  191.3142 C   0  0  0  0  0  0  0  0  0  0  0  0
   34.9210   99.5759  192.2095 C   0  0  0  0  0  0  0  0  0  0  0  0
   33.6132   99.5132  191.7720 C   0  0  0  0  0  0  0  0  0  0  0  0
   33.3290   99.5292  190.4216 C   0  0  0  0  0  0  0  0  0  0  0  0
   31.9196   99.4625  189.9111 C   0  0  0  0  0  0  0  0  0  0  0  0
   31.3640  100.7485  189.9083 F   0  0  0  0  0  0  0  0  0  0  0  0
   31.1531   98.5949  190.6323 F   0  0  0  0  0  0  0  0  0  0  0  0
   31.9884   99.0874  188.5798 F   0  0  0  0  0  0  0  0  0  0  0  0
   34.3941   99.6094  189.5440 C   0  0  0  0  0  0  0  0  0  0  0  0
   35.7044   99.6724  189.9744 C   0  0  0  0  0  0  0  0  0  0  0  0
   38.7611   99.8270  190.6593 S   0  0  0  0  0  0  0  0  0  0  0  0
   39.9811   99.8621  192.0596 C   0  0  0  0  0  0  0  0  0  0  0  0
   41.4101   99.9484  191.7857 C   0  0  0  0  0  0  0  0  0  0  0  0
   41.7415   99.9961  190.5499 O   0  0  0  0  0  0  0  0  0  0  0  0
   42.4304   99.9833  192.7204 N   0  0  0  0  0  0  0  0  0  0  0  0
   43.8370  100.0715  192.3140 C   0  0  1  0  0  0  0  0  0  0  0  0
   44.3588  101.3597  192.9292 C   0  0  0  0  0  0  0  0  0  0  0  0
   45.7824  101.5928  192.6056 C   0  0  0  0  0  0  0  0  0  0  0  0
   46.1360  102.3070  191.4630 C   0  0  0  0  0  0  0  0  0  0  0  0
   47.4608  102.5270  191.1571 C   0  0  0  0  0  0  0  0  0  0  0  0
   48.4661  102.0347  191.9920 C   0  0  0  0  0  0  0  0  0  0  0  0
   49.7952  102.2667  191.6667 O   0  0  0  0  0  0  0  0  0  0  0  0
   48.1156  101.3277  193.1230 C   0  0  0  0  0  0  0  0  0  0  0  0
   46.7789  101.1029  193.4364 C   0  0  0  0  0  0  0  0  0  0  0  0
   44.5255   98.8676  192.8002 C   0  0  0  0  0  0  0  0  0  0  0  0
   44.0027   98.1257  193.6743 O   0  0  0  0  0  0  0  0  0  0  0  0
   45.7772   98.4820  192.3302 O   0  0  0  0  0  0  0  0  0  0  0  0
  1  2  1  0
  2  3  1  0
  3  4  2  0
  4  5  1  0
  5  6  2  0
  6  7  1  0
  7  8  2  0
  8  9  1  0
  9 10  1  0
  9 11  1  0
  9 12  1  0
  8 13  1  0
 13 14  2  0
  4 15  1  0
 15 16  1  0
 16 17  1  0
 17 18  2  0
 17 19  1  0
 19 20  1  0
 20 21  1  1
 21 22  1  0
 22 23  2  0
 23 24  1  0
 24 25  2  0
 25 26  1  0
 25 27  1  0
 27 28  2  0
 20 29  1  0
 29 30  2  0
 29 31  1  0
 16  2  2  0
 28 22  1  0
 14  5  1  0
M  CHG  1  31  -1
M  END
>  <shape_align_shape_tanimoto>  (2) 
0.4183077941363611

>  <shape_align_color_tanimoto>  (2) 
0.071578168631840161

>  <metric>  (2) 
color

>  <metric_score>  (2) 
0.072

>  <template_pid>  (2) 
4WET

>  <template_shape_score>  (2) 
0.418

>  <template_color_score>  (2) 
0.072

>  <template_combo_score>  (2) 
0.245

$$$$
4WET_combo_pose
     RDKit          3D

 31 33  0  0  0  0  0  0  0  0999 V2000
   36.2220  100.8399  193.6850 C   0  0  0  0  0  0  0  0  0  0  0  0
   35.8794  100.1263  192.3970 C   0  0  0  0  0  0  0  0  0  0  0  0
   34.7240  100.2879  191.7863 N   0  0  0  0  0  0  0  0  0  0  0  0
   34.3500   99.7853  190.7819 C   0  0  0  0  0  0  0  0  0  0  0  0
   33.1390   99.7833  189.8927 C   0  0  0  0  0  0  0  0  0  0  0  0
   32.0745  100.5760  190.2658 C   0  0  0  0  0  0  0  0  0  0  0  0
   30.9395  100.6143  189.4908 C   0  0  0  0  0  0  0  0  0  0  0  0
   30.8828   99.8526  188.3423 C   0  0  0  0  0  0  0  0  0  0  0  0
   29.6405   99.9166  187.5262 C   0  0  0  0  0  0  0  0  0  0  0  0
   29.3833  101.2433  187.2430 F   0  0  0  0  0  0  0  0  0  0  0  0
   29.8807   99.2043  186.3644 F   0  0  0  0  0  0  0  0  0  0  0  0
   28.5571   99.3862  188.2239 F   0  0  0  0  0  0  0  0  0  0  0  0
   31.9636   99.0578  187.9782 C   0  0  0  0  0  0  0  0  0  0  0  0
   33.1033   99.0206  188.7581 C   0  0  0  0  0  0  0  0  0  0  0  0
   35.8096   98.7387  190.3289 S   0  0  0  0  0  0  0  0  0  0  0  0
   36.7363   99.2783  191.7915 C   0  0  0  0  0  0  0  0  0  0  0  0
   38.0728   98.7731  192.0353 C   0  0  0  0  0  0  0  0  0  0  0  0
   38.5334   97.9569  191.1860 O   0  0  0  0  0  0  0  0  0  0  0  0
   38.9022   99.0992  193.1163 N   0  0  0  0  0  0  0  0  0  0  0  0
   40.2320   98.5385  193.2745 C   0  0  1  0  0  0  0  0  0  0  0  0
   41.1872   99.7050  193.4198 C   0  0  0  0  0  0  0  0  0  0  0  0
   41.0781  100.5226  192.1831 C   0  0  0  0  0  0  0  0  0  0  0  0
   41.8747  100.2946  191.0723 C   0  0  0  0  0  0  0  0  0  0  0  0
   41.7643  101.0669  189.9180 C   0  0  0  0  0  0  0  0  0  0  0  0
   40.8420  102.0698  189.8990 C   0  0  0  0  0  0  0  0  0  0  0  0
   40.6609  102.8983  188.7798 O   0  0  0  0  0  0  0  0  0  0  0  0
   40.0140  102.3467  190.9832 C   0  0  0  0  0  0  0  0  0  0  0  0
   40.1559  101.5548  192.1124 C   0  0  0  0  0  0  0  0  0  0  0  0
   40.2447   97.8437  194.6051 C   0  0  0  0  0  0  0  0  0  0  0  0
   39.3269   98.0069  195.4528 O   0  0  0  0  0  0  0  0  0  0  0  0
   41.3276   96.9913  194.8837 O   0  0  0  0  0  0  0  0  0  0  0  0
  1  2  1  0
  2  3  1  0
  3  4  2  0
  4  5  1  0
  5  6  2  0
  6  7  1  0
  7  8  2  0
  8  9  1  0
  9 10  1  0
  9 11  1  0
  9 12  1  0
  8 13  1  0
 13 14  2  0
  4 15  1  0
 15 16  1  0
 16 17  1  0
 17 18  2  0
 17 19  1  0
 19 20  1  0
 20 21  1  1
 21 22  1  0
 22 23  2  0
 23 24  1  0
 24 25  2  0
 25 26  1  0
 25 27  1  0
 27 28  2  0
 20 29  1  0
 29 30  2  0
 29 31  1  0
 16  2  2  0
 28 22  1  0
 14  5  1  0
M  CHG  1  31  -1
M  END
>  <shape_align_shape_tanimoto>  (3) 
0.56347246221191016

>  <shape_align_color_tanimoto>  (3) 
0.060942549845945819

>  <metric>  (3) 
combo

>  <metric_score>  (3) 
0.312

>  <template_pid>  (3) 
4WET

>  <template_shape_score>  (3) 
0.563

>  <template_color_score>  (3) 
0.061

>  <template_combo_score>  (3) 
0.312

$$$$
