1QPE_shape_pose
     RDKit          3D

 21 23  0  0  0  0  0  0  0  0999 V2000
    9.2505   37.3423    3.8936 C   0  0  0  0  0  0  0  0  0  0  0  0
    8.8484   36.6757    5.1971 C   0  0  0  0  0  0  0  0  0  0  0  0
    9.0577   35.1777    5.0022 C   0  0  0  0  0  0  0  0  0  0  0  0
    9.7217   37.1363    6.3295 C   0  0  0  0  0  0  0  0  0  0  0  0
    7.4288   36.8832    5.4559 N   0  0  0  0  0  0  0  0  0  0  0  0
    6.6307   36.1250    6.1872 N   0  0  0  0  0  0  0  0  0  0  0  0
    5.3659   36.6412    6.1951 C   0  0  0  0  0  0  0  0  0  0  0  0
    4.2553   36.0517    6.9178 C   0  0  0  0  0  0  0  0  0  0  0  0
    4.4087   35.7268    8.2700 C   0  0  0  0  0  0  0  0  0  0  0  0
    3.3936   35.1420    8.9987 C   0  0  0  0  0  0  0  0  0  0  0  0
    2.1735   34.8485    8.4256 C   0  0  0  0  0  0  0  0  0  0  0  0
    0.8658   34.1130    9.3027 Cl  0  0  0  0  0  0  0  0  0  0  0  0
    2.0024   35.1608    7.0927 C   0  0  0  0  0  0  0  0  0  0  0  0
    3.0336   35.7507    6.3660 C   0  0  0  0  0  0  0  0  0  0  0  0
    5.4506   37.7675    5.4182 C   0  0  0  0  0  0  0  0  0  0  0  0
    4.5100   38.7073    5.0639 C   0  0  0  0  0  0  0  0  0  0  0  0
    3.1717   38.6252    5.5212 N   0  0  0  0  0  0  0  0  0  0  0  0
    4.8413   39.7486    4.2817 N   0  0  0  0  0  0  0  0  0  0  0  0
    6.1183   39.8972    3.8222 C   0  0  0  0  0  0  0  0  0  0  0  0
    7.0435   38.9790    4.1682 N   0  0  0  0  0  0  0  0  0  0  0  0
    6.7352   37.9358    4.9453 C   0  0  0  0  0  0  0  0  0  0  0  0
  1  2  1  0
  2  3  1  0
  2  4  1  0
  2  5  1  0
  5  6  1  0
  6  7  2  0
  7  8  1  0
  8  9  2  0
  9 10  1  0
 10 11  2  0
 11 12  1  0
 11 13  1  0
 13 14  2  0
  7 15  1  0
 15 16  2  0
 16 17  1  0
 16 18  1  0
 18 19  2  0
 19 20  1  0
 20 21  2  0
 21  5  1  0
 14  8  1  0
 21 15  1  0
M  END
>  <shape_align_shape_tanimoto>  (1) 
0.44615630979478993

>  <shape_align_color_tanimoto>  (1) 
0.020885223620705478

>  <metric>  (1) 
shape

>  <metric_score>  (1) 
0.446

>  <template_pid>  (1) 
1QPE

>  <template_shape_score>  (1) 
0.446

>  <template_color_score>  (1) 
0.021

>  <template_combo_score>  (1) 
0.234

$$$$
1QPE_color_pose
     RDKit          3D

 21 23  0  0  0  0  0  0  0  0999 V2000
    9.8323   37.8448    5.6777 C   0  0  0  0  0  0  0  0  0  0  0  0
    8.9052   36.9982    4.8354 C   0  0  0  0  0  0  0  0  0  0  0  0
    9.2550   37.3145    3.3847 C   0  0  0  0  0  0  0  0  0  0  0  0
    9.2418   35.5415    5.0625 C   0  0  0  0  0  0  0  0  0  0  0  0
    7.5112   37.2791    5.1245 N   0  0  0  0  0  0  0  0  0  0  0  0
    6.8068   38.2761    4.5978 N   0  0  0  0  0  0  0  0  0  0  0  0
    5.5254   38.2523    5.0862 C   0  0  0  0  0  0  0  0  0  0  0  0
    4.5377   39.2070    4.6812 C   0  0  0  0  0  0  0  0  0  0  0  0
    3.7355   39.9505    5.5104 C   0  0  0  0  0  0  0  0  0  0  0  0
    2.7813   40.8472    5.0349 C   0  0  0  0  0  0  0  0  0  0  0  0
    2.6033   41.0261    3.6778 C   0  0  0  0  0  0  0  0  0  0  0  0
    1.4088   42.1485    3.1054 Cl  0  0  0  0  0  0  0  0  0  0  0  0
    3.4073   40.2820    2.8400 C   0  0  0  0  0  0  0  0  0  0  0  0
    4.3532   39.3927    3.3061 C   0  0  0  0  0  0  0  0  0  0  0  0
    5.5061   37.1837    5.9330 C   0  0  0  0  0  0  0  0  0  0  0  0
    4.4909   36.6618    6.7035 C   0  0  0  0  0  0  0  0  0  0  0  0
    3.1930   37.2406    6.6962 N   0  0  0  0  0  0  0  0  0  0  0  0
    4.7339   35.5761    7.4609 N   0  0  0  0  0  0  0  0  0  0  0  0
    5.9410   34.9800    7.4904 C   0  0  0  0  0  0  0  0  0  0  0  0
    6.9619   35.4742    6.7378 N   0  0  0  0  0  0  0  0  0  0  0  0
    6.7380   36.5617    5.9719 C   0  0  0  0  0  0  0  0  0  0  0  0
  1  2  1  0
  2  3  1  0
  2  4  1  0
  2  5  1  0
  5  6  1  0
  6  7  2  0
  7  8  1  0
  8  9  2  0
  9 10  1  0
 10 11  2  0
 11 12  1  0
 11 13  1  0
 13 14  2  0
  7 15  1  0
 15 16  2  0
 16 17  1  0
 16 18  1  0
 18 19  2  0
 19 20  1  0
 20 21  2  0
 21  5  1  0
 14  8  1  0
 21 15  1  0
M  END
>  <shape_align_shape_tanimoto>  (2) 
0.37916729980509828

>  <shape_align_color_tanimoto>  (2) 
0.050089710549799972

>  <metric>  (2) 
color

>  <metric_score>  (2) 
0.050

>  <template_pid>  (2) 
1QPE

>  <template_shape_score>  (2) 
0.379

>  <template_color_score>  (2) 
0.050

>  <template_combo_score>  (2) 
0.215

$$$$
1QPE_combo_pose
     RDKit          3D

 21 23  0  0  0  0  0  0  0  0999 V2000
    8.4425   37.5918    3.8161 C   0  0  0  0  0  0  0  0  0  0  0  0
    8.2239   37.1087    5.2232 C   0  0  0  0  0  0  0  0  0  0  0  0
    8.6570   35.6618    5.2980 C   0  0  0  0  0  0  0  0  0  0  0  0
    9.0245   37.9420    6.2007 C   0  0  0  0  0  0  0  0  0  0  0  0
    6.8024   37.1588    5.5308 N   0  0  0  0  0  0  0  0  0  0  0  0
    6.1342   36.2836    6.2776 N   0  0  0  0  0  0  0  0  0  0  0  0
    4.8168   36.6396    6.3543 C   0  0  0  0  0  0  0  0  0  0  0  0
    3.8096   35.9104    7.1023 C   0  0  0  0  0  0  0  0  0  0  0  0
    2.5990   35.5038    6.5917 C   0  0  0  0  0  0  0  0  0  0  0  0
    1.6523   34.8237    7.3571 C   0  0  0  0  0  0  0  0  0  0  0  0
    1.9595   34.5551    8.6797 C   0  0  0  0  0  0  0  0  0  0  0  0
    0.7886   33.6999    9.6713 Cl  0  0  0  0  0  0  0  0  0  0  0  0
    3.1894   34.9646    9.2072 C   0  0  0  0  0  0  0  0  0  0  0  0
    4.1206   35.6380    8.4414 C   0  0  0  0  0  0  0  0  0  0  0  0
    4.7328   37.7889    5.6055 C   0  0  0  0  0  0  0  0  0  0  0  0
    3.6789   38.6204    5.3133 C   0  0  0  0  0  0  0  0  0  0  0  0
    2.3784   38.3735    5.8192 N   0  0  0  0  0  0  0  0  0  0  0  0
    3.8467   39.7111    4.5506 N   0  0  0  0  0  0  0  0  0  0  0  0
    5.0563   40.0238    4.0485 C   0  0  0  0  0  0  0  0  0  0  0  0
    6.1329   39.2283    4.3131 N   0  0  0  0  0  0  0  0  0  0  0  0
    5.9670   38.1228    5.0854 C   0  0  0  0  0  0  0  0  0  0  0  0
  1  2  1  0
  2  3  1  0
  2  4  1  0
  2  5  1  0
  5  6  1  0
  6  7  2  0
  7  8  1  0
  8  9  2  0
  9 10  1  0
 10 11  2  0
 11 12  1  0
 11 13  1  0
 13 14  2  0
  7 15  1  0
 15 16  2  0
 16 17  1  0
 16 18  1  0
 18 19  2  0
 19 20  1  0
 20 21  2  0
 21  5  1  0
 14  8  1  0
 21 15  1  0
M  END
>  <shape_align_shape_tanimoto>  (3) 
0.4440896061603285

>  <shape_align_color_tanimoto>  (3) 
0.036324391385387692

>  <metric>  (3) 
combo

>  <metric_score>  (3) 
0.240

>  <template_pid>  (3) 
1QPE

>  <template_shape_score>  (3) 
0.444

>  <template_color_score>  (3) 
0.036

>  <template_combo_score>  (3) 
0.240

$$$$
