2Z78_shape_pose
     RDKit          3D

 35 36  0  0  0  0  0  0  0  0999 V2000
   30.9008   45.4879   19.2560 C   0  0  0  0  0  0  0  0  0  0  0  0
   30.5830   44.0986   18.8512 C   0  0  0  0  0  0  0  0  0  0  0  0
   29.2926   43.8118   18.1991 C   0  0  0  0  0  0  0  0  0  0  0  0
   28.9977   44.4317   16.8923 C   0  0  0  0  0  0  0  0  0  0  0  0
   28.9522   45.9066   16.8210 C   0  0  0  0  0  0  0  0  0  0  0  0
   28.6331   46.4520   15.4208 C   0  0  0  0  0  0  0  0  0  0  0  0
   27.3018   45.9713   14.9920 C   0  0  0  0  0  0  0  0  0  0  0  0
   26.8762   46.4423   13.6087 C   0  0  0  0  0  0  0  0  0  0  0  0
   27.8304   45.9785   12.5497 C   0  0  0  0  0  0  0  0  0  0  0  0
   27.3286   46.4569   11.1891 C   0  0  0  0  0  0  0  0  0  0  0  0
   28.1795   46.0483   10.1565 O   0  0  0  0  0  0  0  0  0  0  0  0
   27.8459   45.9808    8.8029 C   0  0  0  0  0  0  0  0  0  0  0  0
   28.8209   45.6358    7.9656 C   0  0  0  0  0  0  0  0  0  0  0  0
   28.5608   45.5338    6.5400 C   0  0  0  0  0  0  0  0  0  0  0  0
   29.6419   45.1490    5.6322 C   0  0  0  0  0  0  0  0  0  0  0  0
   30.9190   44.9113    6.1029 C   0  0  0  0  0  0  0  0  0  0  0  0
   31.9652   44.5392    5.2678 C   0  0  0  0  0  0  0  0  0  0  0  0
   33.2091   44.3102    5.7690 F   0  0  0  0  0  0  0  0  0  0  0  0
   31.7362   44.3989    3.9183 C   0  0  0  0  0  0  0  0  0  0  0  0
   30.4791   44.6262    3.4104 C   0  0  0  0  0  0  0  0  0  0  0  0
   30.2460   44.4940    2.0759 F   0  0  0  0  0  0  0  0  0  0  0  0
   29.4390   45.0024    4.2833 C   0  0  0  0  0  0  0  0  0  0  0  0
   27.3283   45.7884    6.1318 C   0  0  0  0  0  0  0  0  0  0  0  0
   26.2627   46.1438    6.9963 N   0  0  0  0  0  0  0  0  0  0  0  0
   24.9084   46.4113    6.5445 C   0  0  0  0  0  0  0  0  0  0  0  0
   24.7248   45.9936    5.1287 C   0  0  0  0  0  0  0  0  0  0  0  0
   24.9690   44.2246    4.8785 P   0  0  0  0  0  0  0  0  0  0  0  0
   25.8048   43.5695    5.9573 O   0  0  0  0  0  0  0  0  0  0  0  0
   23.4359   43.4889    4.8017 O   0  0  0  0  0  0  0  0  0  0  0  0
   25.7226   43.9632    3.3963 O   0  0  0  0  0  0  0  0  0  0  0  0
   23.0235   46.3953    4.5806 P   0  0  0  0  0  0  0  0  0  0  0  0
   22.9899   47.6258    3.7214 O   0  0  0  0  0  0  0  0  0  0  0  0
   22.3641   45.0978    3.7151 O   0  0  0  0  0  0  0  0  0  0  0  0
   22.0825   46.5874    5.9818 O   0  0  0  0  0  0  0  0  0  0  0  0
   26.4791   46.2935    8.4249 C   0  0  0  0  0  0  0  0  0  0  0  0
  1  2  1  0
  2  3  1  0
  3  4  1  0
  4  5  1  0
  5  6  1  0
  6  7  1  0
  7  8  1  0
  8  9  1  0
  9 10  1  0
 10 11  1  0
 11 12  1  0
 12 13  2  0
 13 14  1  0
 14 15  1  0
 15 16  2  0
 16 17  1  0
 17 18  1  0
 17 19  2  0
 19 20  1  0
 20 21  1  0
 20 22  2  0
 14 23  2  0
 23 24  1  0
 24 25  1  0
 25 26  1  0
 26 27  1  0
 27 28  2  0
 27 29  1  0
 27 30  1  0
 26 31  1  0
 31 32  2  0
 31 33  1  0
 31 34  1  0
 24 35  1  0
 35 12  1  0
 22 15  1  0
M  END
>  <shape_align_shape_tanimoto>  (1) 
0.52868524611739187

>  <shape_align_color_tanimoto>  (1) 
0.030157691783692188

>  <metric>  (1) 
shape

>  <metric_score>  (1) 
0.529

>  <template_pid>  (1) 
2Z78

>  <template_shape_score>  (1) 
0.529

>  <template_color_score>  (1) 
0.030

>  <template_combo_score>  (1) 
0.279

$$$$
2Z78_color_pose
     RDKit          3D

 35 36  0  0  0  0  0  0  0  0999 V2000
   40.5786   46.1607    8.3755 C   0  0  0  0  0  0  0  0  0  0  0  0
   40.4829   44.8646    7.6504 C   0  0  0  0  0  0  0  0  0  0  0  0
   39.6484   43.8272    8.2967 C   0  0  0  0  0  0  0  0  0  0  0  0
   38.1957   44.1104    8.4698 C   0  0  0  0  0  0  0  0  0  0  0  0
   37.8234   45.2925    9.2887 C   0  0  0  0  0  0  0  0  0  0  0  0
   36.3092   45.4128    9.3985 C   0  0  0  0  0  0  0  0  0  0  0  0
   35.6784   44.2058   10.0367 C   0  0  0  0  0  0  0  0  0  0  0  0
   34.1653   44.4367   10.1616 C   0  0  0  0  0  0  0  0  0  0  0  0
   33.5764   43.1898   10.8013 C   0  0  0  0  0  0  0  0  0  0  0  0
   32.0738   43.3918   10.9775 C   0  0  0  0  0  0  0  0  0  0  0  0
   31.4479   43.5920    9.7355 O   0  0  0  0  0  0  0  0  0  0  0  0
   30.3471   44.4773    9.6466 C   0  0  0  0  0  0  0  0  0  0  0  0
   29.6162   44.7522   10.7033 C   0  0  0  0  0  0  0  0  0  0  0  0
   28.4891   45.6737   10.6089 C   0  0  0  0  0  0  0  0  0  0  0  0
   27.6801   45.9765   11.7930 C   0  0  0  0  0  0  0  0  0  0  0  0
   26.6006   46.8283   11.7485 C   0  0  0  0  0  0  0  0  0  0  0  0
   25.8272   47.1505   12.8565 C   0  0  0  0  0  0  0  0  0  0  0  0
   24.7683   47.9814   12.8006 F   0  0  0  0  0  0  0  0  0  0  0  0
   26.1699   46.5793   14.0659 C   0  0  0  0  0  0  0  0  0  0  0  0
   27.2369   45.7243   14.1595 C   0  0  0  0  0  0  0  0  0  0  0  0
   27.5369   45.1907   15.3687 F   0  0  0  0  0  0  0  0  0  0  0  0
   27.9913   45.4240   13.0150 C   0  0  0  0  0  0  0  0  0  0  0  0
   28.2548   46.2089    9.4346 C   0  0  0  0  0  0  0  0  0  0  0  0
   29.0525   45.9358    8.2616 N   0  0  0  0  0  0  0  0  0  0  0  0
   28.7125   46.6318    7.0694 C   0  0  0  0  0  0  0  0  0  0  0  0
   28.1117   46.0350    5.9005 C   0  0  0  0  0  0  0  0  0  0  0  0
   29.0328   44.7316    5.0673 P   0  0  0  0  0  0  0  0  0  0  0  0
   28.7283   44.8095    3.5531 O   0  0  0  0  0  0  0  0  0  0  0  0
   28.6294   43.1772    5.5357 O   0  0  0  0  0  0  0  0  0  0  0  0
   30.6839   45.0562    5.2395 O   0  0  0  0  0  0  0  0  0  0  0  0
   26.3429   45.6726    5.9828 P   0  0  0  0  0  0  0  0  0  0  0  0
   26.1695   44.1989    6.3025 O   0  0  0  0  0  0  0  0  0  0  0  0
   25.4883   46.6901    6.9959 O   0  0  0  0  0  0  0  0  0  0  0  0
   25.6231   45.8514    4.4315 O   0  0  0  0  0  0  0  0  0  0  0  0
   30.1296   45.0256    8.2846 C   0  0  0  0  0  0  0  0  0  0  0  0
  1  2  1  0
  2  3  1  0
  3  4  1  0
  4  5  1  0
  5  6  1  0
  6  7  1  0
  7  8  1  0
  8  9  1  0
  9 10  1  0
 10 11  1  0
 11 12  1  0
 12 13  2  0
 13 14  1  0
 14 15  1  0
 15 16  2  0
 16 17  1  0
 17 18  1  0
 17 19  2  0
 19 20  1  0
 20 21  1  0
 20 22  2  0
 14 23  2  0
 23 24  1  0
 24 25  1  0
 25 26  1  0
 26 27  1  0
 27 28  2  0
 27 29  1  0
 27 30  1  0
 26 31  1  0
 31 32  2  0
 31 33  1  0
 31 34  1  0
 24 35  1  0
 35 12  1  0
 22 15  1  0
M  END
>  <shape_align_shape_tanimoto>  (2) 
0.43552700634084884

>  <shape_align_color_tanimoto>  (2) 
0.23676969581923665

>  <metric>  (2) 
color

>  <metric_score>  (2) 
0.237

>  <template_pid>  (2) 
2Z78

>  <template_shape_score>  (2) 
0.436

>  <template_color_score>  (2) 
0.237

>  <template_combo_score>  (2) 
0.336

$$$$
2Z78_combo_pose
     RDKit          3D

 35 36  0  0  0  0  0  0  0  0999 V2000
   32.0298   49.2842   20.4614 C   0  0  0  0  0  0  0  0  0  0  0  0
   32.1826   47.8052   20.2091 C   0  0  0  0  0  0  0  0  0  0  0  0
   30.9392   47.2383   19.5389 C   0  0  0  0  0  0  0  0  0  0  0  0
   31.0874   45.7709   19.2851 C   0  0  0  0  0  0  0  0  0  0  0  0
   29.9153   45.1201   18.6278 C   0  0  0  0  0  0  0  0  0  0  0  0
   29.6123   45.7266   17.2719 C   0  0  0  0  0  0  0  0  0  0  0  0
   28.4213   45.0343   16.6473 C   0  0  0  0  0  0  0  0  0  0  0  0
   28.1630   45.6793   15.3045 C   0  0  0  0  0  0  0  0  0  0  0  0
   27.0027   45.0750   14.5839 C   0  0  0  0  0  0  0  0  0  0  0  0
   26.8110   45.7691   13.2614 C   0  0  0  0  0  0  0  0  0  0  0  0
   27.9381   45.6653   12.4235 O   0  0  0  0  0  0  0  0  0  0  0  0
   27.9534   46.1973   11.1245 C   0  0  0  0  0  0  0  0  0  0  0  0
   27.5848   47.4532   10.9623 C   0  0  0  0  0  0  0  0  0  0  0  0
   27.5710   48.0788    9.6480 C   0  0  0  0  0  0  0  0  0  0  0  0
   27.1602   49.4733    9.4990 C   0  0  0  0  0  0  0  0  0  0  0  0
   27.1462   50.0807    8.2575 C   0  0  0  0  0  0  0  0  0  0  0  0
   26.7522   51.4164    8.0978 C   0  0  0  0  0  0  0  0  0  0  0  0
   26.7389   52.0107    6.8796 F   0  0  0  0  0  0  0  0  0  0  0  0
   26.3732   52.1273    9.2096 C   0  0  0  0  0  0  0  0  0  0  0  0
   26.3715   51.5639   10.4646 C   0  0  0  0  0  0  0  0  0  0  0  0
   25.9952   52.2916   11.5199 F   0  0  0  0  0  0  0  0  0  0  0  0
   26.7734   50.2269   10.5716 C   0  0  0  0  0  0  0  0  0  0  0  0
   27.9418   47.3285    8.6250 C   0  0  0  0  0  0  0  0  0  0  0  0
   28.3351   45.9713    8.7831 N   0  0  0  0  0  0  0  0  0  0  0  0
   28.7258   45.2012    7.6188 C   0  0  0  0  0  0  0  0  0  0  0  0
   28.5619   45.8870    6.3070 C   0  0  0  0  0  0  0  0  0  0  0  0
   29.1613   44.6867    5.0451 P   0  0  0  0  0  0  0  0  0  0  0  0
   28.7165   45.1358    3.6894 O   0  0  0  0  0  0  0  0  0  0  0  0
   28.4271   43.2080    5.4325 O   0  0  0  0  0  0  0  0  0  0  0  0
   30.8357   44.5426    5.1477 O   0  0  0  0  0  0  0  0  0  0  0  0
   26.7876   46.1420    5.9141 P   0  0  0  0  0  0  0  0  0  0  0  0
   26.3442   45.1106    4.9089 O   0  0  0  0  0  0  0  0  0  0  0  0
   25.9356   45.9183    7.3677 O   0  0  0  0  0  0  0  0  0  0  0  0
   26.5349   47.6539    5.2379 O   0  0  0  0  0  0  0  0  0  0  0  0
   28.3878   45.2892   10.0535 C   0  0  0  0  0  0  0  0  0  0  0  0
  1  2  1  0
  2  3  1  0
  3  4  1  0
  4  5  1  0
  5  6  1  0
  6  7  1  0
  7  8  1  0
  8  9  1  0
  9 10  1  0
 10 11  1  0
 11 12  1  0
 12 13  2  0
 13 14  1  0
 14 15  1  0
 15 16  2  0
 16 17  1  0
 17 18  1  0
 17 19  2  0
 19 20  1  0
 20 21  1  0
 20 22  2  0
 14 23  2  0
 23 24  1  0
 24 25  1  0
 25 26  1  0
 26 27  1  0
 27 28  2  0
 27 29  1  0
 27 30  1  0
 26 31  1  0
 31 32  2  0
 31 33  1  0
 31 34  1  0
 24 35  1  0
 35 12  1  0
 22 15  1  0
M  END
>  <shape_align_shape_tanimoto>  (3) 
0.5285822493904494

>  <shape_align_color_tanimoto>  (3) 
0.14582706342628998

>  <metric>  (3) 
combo

>  <metric_score>  (3) 
0.337

>  <template_pid>  (3) 
2Z78

>  <template_shape_score>  (3) 
0.529

>  <template_color_score>  (3) 
0.146

>  <template_combo_score>  (3) 
0.337

$$$$
