1Q63_shape_pose
     RDKit          3D

 20 22  0  0  0  0  0  0  0  0999 V2000
  -28.5052   90.6494   21.1133 N   0  0  0  0  0  0  0  0  0  0  0  0
  -29.3036   90.9980   19.9885 C   0  0  0  0  0  0  0  0  0  0  0  0
  -30.6783   90.9997   20.0720 C   0  0  0  0  0  0  0  0  0  0  0  0
  -31.4656   91.3387   18.9702 C   0  0  0  0  0  0  0  0  0  0  0  0
  -32.9316   91.3186   19.1822 C   0  0  0  0  0  0  0  0  0  0  0  0
  -33.5693   93.0252   19.4034 S   0  0  0  0  0  0  0  0  0  0  0  0
  -35.3379   92.8787   19.6869 C   0  0  0  0  0  0  0  0  0  0  0  0
  -35.8388   92.7137   20.9350 N   0  0  0  0  0  0  0  0  0  0  0  0
  -37.1732   92.6295   20.8348 C   0  0  0  0  0  0  0  0  0  0  0  0
  -37.4822   92.7478   19.4850 C   0  0  0  0  0  0  0  0  0  0  0  0
  -36.3385   92.9016   18.7909 N   0  0  0  0  0  0  0  0  0  0  0  0
  -30.8877   91.6810   17.7677 C   0  0  0  0  0  0  0  0  0  0  0  0
  -31.6683   92.0086   16.7021 N   0  0  0  0  0  0  0  0  0  0  0  0
  -31.0576   92.3418   15.5271 C   0  0  0  0  0  0  0  0  0  0  0  0
  -31.8028   92.6982   14.3676 N   0  0  0  0  0  0  0  0  0  0  0  0
  -29.7007   92.3462   15.4239 N   0  0  0  0  0  0  0  0  0  0  0  0
  -28.9305   92.0147   16.5043 C   0  0  0  0  0  0  0  0  0  0  0  0
  -27.6787   92.0414   16.3335 O   0  0  0  0  0  0  0  0  0  0  0  0
  -29.5137   91.6736   17.7066 C   0  0  0  0  0  0  0  0  0  0  0  0
  -28.7212   91.3412   18.7853 C   0  0  0  0  0  0  0  0  0  0  0  0
  1  2  1  0
  2  3  2  0
  3  4  1  0
  4  5  1  0
  5  6  1  0
  6  7  1  0
  7  8  2  0
  8  9  1  0
  9 10  2  0
 10 11  1  0
  4 12  2  0
 12 13  1  0
 13 14  2  0
 14 15  1  0
 14 16  1  0
 16 17  1  0
 17 18  2  0
 17 19  1  0
 19 20  2  0
 20  2  1  0
 11  7  1  0
 19 12  1  0
M  END
>  <shape_align_shape_tanimoto>  (1) 
0.79461170464361974

>  <shape_align_color_tanimoto>  (1) 
0.062413295284403737

>  <metric>  (1) 
shape

>  <metric_score>  (1) 
0.795

>  <template_pid>  (1) 
1Q63

>  <template_shape_score>  (1) 
0.795

>  <template_color_score>  (1) 
0.062

>  <template_combo_score>  (1) 
0.429

$$$$
1Q63_color_pose
     RDKit          3D

 20 22  0  0  0  0  0  0  0  0999 V2000
  -28.9054   91.9519   15.3252 N   0  0  0  0  0  0  0  0  0  0  0  0
  -29.7699   91.8540   16.4483 C   0  0  0  0  0  0  0  0  0  0  0  0
  -29.3128   91.2792   17.6141 C   0  0  0  0  0  0  0  0  0  0  0  0
  -30.1233   91.1873   18.7215 C   0  0  0  0  0  0  0  0  0  0  0  0
  -29.4939   90.7062   19.9783 C   0  0  0  0  0  0  0  0  0  0  0  0
  -28.3891   91.8757   20.7484 S   0  0  0  0  0  0  0  0  0  0  0  0
  -29.0469   93.4177   21.2522 C   0  0  0  0  0  0  0  0  0  0  0  0
  -28.2483   94.3849   21.8080 N   0  0  0  0  0  0  0  0  0  0  0  0
  -28.9552   95.4755   22.0781 C   0  0  0  0  0  0  0  0  0  0  0  0
  -30.2440   95.2372   21.7011 C   0  0  0  0  0  0  0  0  0  0  0  0
  -30.2543   93.9734   21.2043 N   0  0  0  0  0  0  0  0  0  0  0  0
  -31.4121   91.6776   18.6471 C   0  0  0  0  0  0  0  0  0  0  0  0
  -32.2169   91.5515   19.7137 N   0  0  0  0  0  0  0  0  0  0  0  0
  -33.5054   91.9957   19.6629 C   0  0  0  0  0  0  0  0  0  0  0  0
  -34.3817   91.8769   20.7848 N   0  0  0  0  0  0  0  0  0  0  0  0
  -34.0114   92.5693   18.5559 N   0  0  0  0  0  0  0  0  0  0  0  0
  -33.1960   92.6897   17.4878 C   0  0  0  0  0  0  0  0  0  0  0  0
  -33.6370   93.2113   16.4657 O   0  0  0  0  0  0  0  0  0  0  0  0
  -31.8898   92.2547   17.4922 C   0  0  0  0  0  0  0  0  0  0  0  0
  -31.0567   92.3393   16.3941 C   0  0  0  0  0  0  0  0  0  0  0  0
  1  2  1  0
  2  3  2  0
  3  4  1  0
  4  5  1  0
  5  6  1  0
  6  7  1  0
  7  8  2  0
  8  9  1  0
  9 10  2  0
 10 11  1  0
  4 12  2  0
 12 13  1  0
 13 14  2  0
 14 15  1  0
 14 16  1  0
 16 17  1  0
 17 18  2  0
 17 19  1  0
 19 20  2  0
 20  2  1  0
 11  7  1  0
 19 12  1  0
M  END
>  <shape_align_shape_tanimoto>  (2) 
0.56772817422252297

>  <shape_align_color_tanimoto>  (2) 
0.17881504092285455

>  <metric>  (2) 
color

>  <metric_score>  (2) 
0.179

>  <template_pid>  (2) 
1Q63

>  <template_shape_score>  (2) 
0.568

>  <template_color_score>  (2) 
0.179

>  <template_combo_score>  (2) 
0.373

$$$$
1Q63_combo_pose
     RDKit          3D

 20 22  0  0  0  0  0  0  0  0999 V2000
  -28.5052   90.6494   21.1133 N   0  0  0  0  0  0  0  0  0  0  0  0
  -29.3036   90.9980   19.9885 C   0  0  0  0  0  0  0  0  0  0  0  0
  -30.6783   90.9997   20.0720 C   0  0  0  0  0  0  0  0  0  0  0  0
  -31.4656   91.3387   18.9702 C   0  0  0  0  0  0  0  0  0  0  0  0
  -32.9316   91.3186   19.1822 C   0  0  0  0  0  0  0  0  0  0  0  0
  -33.5693   93.0252   19.4034 S   0  0  0  0  0  0  0  0  0  0  0  0
  -35.3379   92.8787   19.6869 C   0  0  0  0  0  0  0  0  0  0  0  0
  -35.8388   92.7137   20.9350 N   0  0  0  0  0  0  0  0  0  0  0  0
  -37.1732   92.6295   20.8348 C   0  0  0  0  0  0  0  0  0  0  0  0
  -37.4822   92.7478   19.4850 C   0  0  0  0  0  0  0  0  0  0  0  0
  -36.3385   92.9016   18.7909 N   0  0  0  0  0  0  0  0  0  0  0  0
  -30.8877   91.6810   17.7677 C   0  0  0  0  0  0  0  0  0  0  0  0
  -31.6683   92.0086   16.7021 N   0  0  0  0  0  0  0  0  0  0  0  0
  -31.0576   92.3418   15.5271 C   0  0  0  0  0  0  0  0  0  0  0  0
  -31.8028   92.6982   14.3676 N   0  0  0  0  0  0  0  0  0  0  0  0
  -29.7007   92.3462   15.4239 N   0  0  0  0  0  0  0  0  0  0  0  0
  -28.9305   92.0147   16.5043 C   0  0  0  0  0  0  0  0  0  0  0  0
  -27.6787   92.0414   16.3335 O   0  0  0  0  0  0  0  0  0  0  0  0
  -29.5137   91.6736   17.7066 C   0  0  0  0  0  0  0  0  0  0  0  0
  -28.7212   91.3412   18.7853 C   0  0  0  0  0  0  0  0  0  0  0  0
  1  2  1  0
  2  3  2  0
  3  4  1  0
  4  5  1  0
  5  6  1  0
  6  7  1  0
  7  8  2  0
  8  9  1  0
  9 10  2  0
 10 11  1  0
  4 12  2  0
 12 13  1  0
 13 14  2  0
 14 15  1  0
 14 16  1  0
 16 17  1  0
 17 18  2  0
 17 19  1  0
 19 20  2  0
 20  2  1  0
 11  7  1  0
 19 12  1  0
M  END
>  <shape_align_shape_tanimoto>  (3) 
0.79461170464361974

>  <shape_align_color_tanimoto>  (3) 
0.062413295284403737

>  <metric>  (3) 
combo

>  <metric_score>  (3) 
0.429

>  <template_pid>  (3) 
1Q63

>  <template_shape_score>  (3) 
0.795

>  <template_color_score>  (3) 
0.062

>  <template_combo_score>  (3) 
0.429

$$$$
