4PRJ_shape_pose
     RDKit          3D

 31 35  0  0  0  0  0  0  0  0999 V2000
    1.6232   16.9634    8.1595 N   0  0  0  0  0  0  0  0  0  0  0  0
    2.0808   17.9956    8.3968 C   0  0  0  0  0  0  0  0  0  0  0  0
    2.6778   19.2927    8.6809 C   0  0  0  0  0  0  0  0  0  0  0  0
    1.8757   20.3077    9.2043 C   0  0  0  0  0  0  0  0  0  0  0  0
    2.4270   21.5628    9.4856 C   0  0  0  0  0  0  0  0  0  0  0  0
    3.7628   21.7740    9.2384 C   0  0  0  0  0  0  0  0  0  0  0  0
    4.5829   20.7740    8.7157 C   0  0  0  0  0  0  0  0  0  0  0  0
    6.0450   21.0404    8.4572 C   0  0  0  0  0  0  0  0  0  0  0  0
    6.7476   20.6775    9.6988 N   0  0  0  0  0  0  0  0  0  0  0  0
    7.2408   19.4475    9.9776 C   0  0  0  0  0  0  0  0  0  0  0  0
    7.8325   19.4679   11.2223 C   0  0  0  0  0  0  0  0  0  0  0  0
    8.4770   18.4088   11.9195 N   0  0  0  0  0  0  0  0  0  0  0  0
    8.6179   17.1021   11.4169 C   0  0  0  0  0  0  0  0  0  0  0  0
    8.1743   16.7928   10.3048 O   0  0  0  0  0  0  0  0  0  0  0  0
    9.3051   16.0795   12.2253 C   0  0  0  0  0  0  0  0  0  0  0  0
    9.8408   16.2742   13.4572 N   0  0  0  0  0  0  0  0  0  0  0  0
   10.3847   15.1415   13.9010 N   0  0  0  0  0  0  0  0  0  0  0  0
   10.1963   14.2079   12.9431 C   0  0  0  0  0  0  0  0  0  0  0  0
   10.5603   12.8576   12.8813 C   0  0  0  0  0  0  0  0  0  0  0  0
   10.2446   12.0904   11.7600 C   0  0  0  0  0  0  0  0  0  0  0  0
   10.6182   10.6727   11.6779 C   0  0  0  0  0  0  0  0  0  0  0  0
   10.9314    9.9654   10.5200 C   0  0  0  0  0  0  0  0  0  0  0  0
   11.2147    8.6907   10.9082 N   0  0  0  0  0  0  0  0  0  0  0  0
   11.0949    8.5755   12.2220 N   0  0  0  0  0  0  0  0  0  0  0  0
   10.7263    9.7770   12.7500 C   0  0  0  0  0  0  0  0  0  0  0  0
    9.5584   12.6807   10.6913 C   0  0  0  0  0  0  0  0  0  0  0  0
    9.1915   14.0235   10.7426 C   0  0  0  0  0  0  0  0  0  0  0  0
    9.5183   14.7599   11.8684 C   0  0  0  0  0  0  0  0  0  0  0  0
    7.6736   20.7597   11.6772 C   0  0  0  0  0  0  0  0  0  0  0  0
    7.0072   21.4730   10.7232 N   0  0  0  0  0  0  0  0  0  0  0  0
    4.0338   19.5189    8.4338 C   0  0  0  0  0  0  0  0  0  0  0  0
  1  2  3  0
  2  3  1  0
  3  4  2  0
  4  5  1  0
  5  6  2  0
  6  7  1  0
  7  8  1  0
  8  9  1  0
  9 10  1  0
 10 11  2  0
 11 12  1  0
 12 13  1  0
 13 14  2  0
 13 15  1  0
 15 16  2  0
 16 17  1  0
 17 18  1  0
 18 19  2  0
 19 20  1  0
 20 21  1  0
 21 22  1  0
 22 23  2  0
 23 24  1  0
 24 25  1  0
 20 26  2  0
 26 27  1  0
 27 28  2  0
 11 29  1  0
 29 30  2  0
  7 31  2  0
 31  3  1  0
 30  9  1  0
 28 15  1  0
 28 18  1  0
 25 21  2  0
M  END
>  <shape_align_shape_tanimoto>  (1) 
0.48436097204103795

>  <shape_align_color_tanimoto>  (1) 
0.049037310837527673

>  <metric>  (1) 
shape

>  <metric_score>  (1) 
0.484

>  <template_pid>  (1) 
4PRJ

>  <template_shape_score>  (1) 
0.484

>  <template_color_score>  (1) 
0.049

>  <template_combo_score>  (1) 
0.267

$$$$
4PRJ_color_pose
     RDKit          3D

 31 35  0  0  0  0  0  0  0  0999 V2000
    6.1438   18.7314    1.3689 N   0  0  0  0  0  0  0  0  0  0  0  0
    5.2915   18.8820    2.1318 C   0  0  0  0  0  0  0  0  0  0  0  0
    4.2299   19.0878    3.0721 C   0  0  0  0  0  0  0  0  0  0  0  0
    2.9074   18.7718    2.7907 C   0  0  0  0  0  0  0  0  0  0  0  0
    1.9154   18.9958    3.7488 C   0  0  0  0  0  0  0  0  0  0  0  0
    2.2660   19.5357    4.9804 C   0  0  0  0  0  0  0  0  0  0  0  0
    3.5882   19.8466    5.2489 C   0  0  0  0  0  0  0  0  0  0  0  0
    3.9929   20.4322    6.5730 C   0  0  0  0  0  0  0  0  0  0  0  0
    4.3186   19.3916    7.5339 N   0  0  0  0  0  0  0  0  0  0  0  0
    5.5616   18.8587    7.7104 C   0  0  0  0  0  0  0  0  0  0  0  0
    5.4385   17.9141    8.7064 C   0  0  0  0  0  0  0  0  0  0  0  0
    6.4222   17.0629    9.2842 N   0  0  0  0  0  0  0  0  0  0  0  0
    7.1298   17.5132   10.3937 C   0  0  0  0  0  0  0  0  0  0  0  0
    6.8207   18.7002   10.7969 O   0  0  0  0  0  0  0  0  0  0  0  0
    8.1538   16.8538   11.1533 C   0  0  0  0  0  0  0  0  0  0  0  0
    8.9026   17.5333   12.0775 N   0  0  0  0  0  0  0  0  0  0  0  0
    9.7654   16.7181   12.6584 N   0  0  0  0  0  0  0  0  0  0  0  0
    9.6472   15.4730   12.1688 C   0  0  0  0  0  0  0  0  0  0  0  0
   10.2687   14.2643   12.4095 C   0  0  0  0  0  0  0  0  0  0  0  0
    9.9181   13.1126   11.7372 C   0  0  0  0  0  0  0  0  0  0  0  0
   10.5568   11.8250   11.9741 C   0  0  0  0  0  0  0  0  0  0  0  0
   11.0742   11.3768   13.1684 C   0  0  0  0  0  0  0  0  0  0  0  0
   11.5549   10.1496   12.9117 N   0  0  0  0  0  0  0  0  0  0  0  0
   11.3668    9.8183   11.6448 N   0  0  0  0  0  0  0  0  0  0  0  0
   10.7417   10.8425   11.0152 C   0  0  0  0  0  0  0  0  0  0  0  0
    8.9080   13.2211   10.8030 C   0  0  0  0  0  0  0  0  0  0  0  0
    8.2904   14.4267   10.5649 C   0  0  0  0  0  0  0  0  0  0  0  0
    8.6241   15.5756   11.2189 C   0  0  0  0  0  0  0  0  0  0  0  0
    4.1191   17.8999    9.1081 C   0  0  0  0  0  0  0  0  0  0  0  0
    3.4646   18.8150    8.3705 N   0  0  0  0  0  0  0  0  0  0  0  0
    4.5941   19.6286    4.3006 C   0  0  0  0  0  0  0  0  0  0  0  0
  1  2  3  0
  2  3  1  0
  3  4  2  0
  4  5  1  0
  5  6  2  0
  6  7  1  0
  7  8  1  0
  8  9  1  0
  9 10  1  0
 10 11  2  0
 11 12  1  0
 12 13  1  0
 13 14  2  0
 13 15  1  0
 15 16  2  0
 16 17  1  0
 17 18  1  0
 18 19  2  0
 19 20  1  0
 20 21  1  0
 21 22  1  0
 22 23  2  0
 23 24  1  0
 24 25  1  0
 20 26  2  0
 26 27  1  0
 27 28  2  0
 11 29  1  0
 29 30  2  0
  7 31  2  0
 31  3  1  0
 30  9  1  0
 28 15  1  0
 28 18  1  0
 25 21  2  0
M  END
>  <shape_align_shape_tanimoto>  (2) 
0.37562932062199406

>  <shape_align_color_tanimoto>  (2) 
0.11337469138289853

>  <metric>  (2) 
color

>  <metric_score>  (2) 
0.113

>  <template_pid>  (2) 
4PRJ

>  <template_shape_score>  (2) 
0.376

>  <template_color_score>  (2) 
0.113

>  <template_combo_score>  (2) 
0.245

$$$$
4PRJ_combo_pose
     RDKit          3D

 31 35  0  0  0  0  0  0  0  0999 V2000
    1.6232   16.9634    8.1595 N   0  0  0  0  0  0  0  0  0  0  0  0
    2.0808   17.9956    8.3968 C   0  0  0  0  0  0  0  0  0  0  0  0
    2.6778   19.2927    8.6809 C   0  0  0  0  0  0  0  0  0  0  0  0
    1.8757   20.3077    9.2043 C   0  0  0  0  0  0  0  0  0  0  0  0
    2.4270   21.5628    9.4856 C   0  0  0  0  0  0  0  0  0  0  0  0
    3.7628   21.7740    9.2384 C   0  0  0  0  0  0  0  0  0  0  0  0
    4.5829   20.7740    8.7157 C   0  0  0  0  0  0  0  0  0  0  0  0
    6.0450   21.0404    8.4572 C   0  0  0  0  0  0  0  0  0  0  0  0
    6.7476   20.6775    9.6988 N   0  0  0  0  0  0  0  0  0  0  0  0
    7.2408   19.4475    9.9776 C   0  0  0  0  0  0  0  0  0  0  0  0
    7.8325   19.4679   11.2223 C   0  0  0  0  0  0  0  0  0  0  0  0
    8.4770   18.4088   11.9195 N   0  0  0  0  0  0  0  0  0  0  0  0
    8.6179   17.1021   11.4169 C   0  0  0  0  0  0  0  0  0  0  0  0
    8.1743   16.7928   10.3048 O   0  0  0  0  0  0  0  0  0  0  0  0
    9.3051   16.0795   12.2253 C   0  0  0  0  0  0  0  0  0  0  0  0
    9.8408   16.2742   13.4572 N   0  0  0  0  0  0  0  0  0  0  0  0
   10.3847   15.1415   13.9010 N   0  0  0  0  0  0  0  0  0  0  0  0
   10.1963   14.2079   12.9431 C   0  0  0  0  0  0  0  0  0  0  0  0
   10.5603   12.8576   12.8813 C   0  0  0  0  0  0  0  0  0  0  0  0
   10.2446   12.0904   11.7600 C   0  0  0  0  0  0  0  0  0  0  0  0
   10.6182   10.6727   11.6779 C   0  0  0  0  0  0  0  0  0  0  0  0
   10.9314    9.9654   10.5200 C   0  0  0  0  0  0  0  0  0  0  0  0
   11.2147    8.6907   10.9082 N   0  0  0  0  0  0  0  0  0  0  0  0
   11.0949    8.5755   12.2220 N   0  0  0  0  0  0  0  0  0  0  0  0
   10.7263    9.7770   12.7500 C   0  0  0  0  0  0  0  0  0  0  0  0
    9.5584   12.6807   10.6913 C   0  0  0  0  0  0  0  0  0  0  0  0
    9.1915   14.0235   10.7426 C   0  0  0  0  0  0  0  0  0  0  0  0
    9.5183   14.7599   11.8684 C   0  0  0  0  0  0  0  0  0  0  0  0
    7.6736   20.7597   11.6772 C   0  0  0  0  0  0  0  0  0  0  0  0
    7.0072   21.4730   10.7232 N   0  0  0  0  0  0  0  0  0  0  0  0
    4.0338   19.5189    8.4338 C   0  0  0  0  0  0  0  0  0  0  0  0
  1  2  3  0
  2  3  1  0
  3  4  2  0
  4  5  1  0
  5  6  2  0
  6  7  1  0
  7  8  1  0
  8  9  1  0
  9 10  1  0
 10 11  2  0
 11 12  1  0
 12 13  1  0
 13 14  2  0
 13 15  1  0
 15 16  2  0
 16 17  1  0
 17 18  1  0
 18 19  2  0
 19 20  1  0
 20 21  1  0
 21 22  1  0
 22 23  2  0
 23 24  1  0
 24 25  1  0
 20 26  2  0
 26 27  1  0
 27 28  2  0
 11 29  1  0
 29 30  2  0
  7 31  2  0
 31  3  1  0
 30  9  1  0
 28 15  1  0
 28 18  1  0
 25 21  2  0
M  END
>  <shape_align_shape_tanimoto>  (3) 
0.48436097204103795

>  <shape_align_color_tanimoto>  (3) 
0.049037310837527673

>  <metric>  (3) 
combo

>  <metric_score>  (3) 
0.267

>  <template_pid>  (3) 
4PRJ

>  <template_shape_score>  (3) 
0.484

>  <template_color_score>  (3) 
0.049

>  <template_combo_score>  (3) 
0.267

$$$$
