3D4F_shape_pose
     RDKit          3D

 34 36  0  0  0  0  0  0  0  0999 V2000
  -32.4874   89.9650   17.7115 C   0  0  0  0  0  0  0  0  0  0  0  0
  -32.9284   91.2706   17.0675 C   0  0  2  0  0  0  0  0  0  0  0  0
  -31.8029   91.7312   16.1913 C   0  0  0  0  0  0  0  0  0  0  0  0
  -30.6301   91.9087   16.9312 O   0  0  0  0  0  0  0  0  0  0  0  0
  -29.3948   92.2084   16.3376 C   0  0  0  0  0  0  0  0  0  0  0  0
  -29.2691   92.3348   15.1160 O   0  0  0  0  0  0  0  0  0  0  0  0
  -28.2210   92.3589   17.2619 C   0  0  0  0  0  0  0  0  0  0  0  0
  -28.4530   91.4411   18.4233 C   0  0  0  0  0  0  0  0  0  0  0  0
  -28.7943   92.0092   19.6412 C   0  0  0  0  0  0  0  0  0  0  0  0
  -29.0707   91.2540   20.7609 C   0  0  0  0  0  0  0  0  0  0  0  0
  -29.0006   89.8822   20.6449 C   0  0  0  0  0  0  0  0  0  0  0  0
  -29.2842   89.1169   21.7922 O   0  0  0  0  0  0  0  0  0  0  0  0
  -28.6640   89.2994   19.4430 C   0  0  0  0  0  0  0  0  0  0  0  0
  -28.6271   87.9082   19.4253 O   0  0  0  0  0  0  0  0  0  0  0  0
  -28.3894   90.0698   18.3339 C   0  0  0  0  0  0  0  0  0  0  0  0
  -33.4814   92.2521   18.0413 C   0  0  1  0  0  0  0  0  0  0  0  0
  -34.6026   91.6197   18.6991 N   0  0  0  0  0  0  0  0  0  0  0  0
  -35.5079   92.2162   19.5918 C   0  0  0  0  0  0  0  0  0  0  0  0
  -35.5540   92.0405   20.9733 C   0  0  0  0  0  0  0  0  0  0  0  0
  -34.7368   91.1503   21.7846 C   0  0  0  0  0  0  0  0  0  0  0  0
  -33.9012   90.3288   21.3049 O   0  0  0  0  0  0  0  0  0  0  0  0
  -36.5747   92.8034   21.5093 C   0  0  0  0  0  0  0  0  0  0  0  0
  -37.1485   93.4401   20.4354 C   0  0  0  0  0  0  0  0  0  0  0  0
  -38.2394   94.3191   20.4379 C   0  0  0  0  0  0  0  0  0  0  0  0
  -38.7005   94.8511   19.2582 C   0  0  0  0  0  0  0  0  0  0  0  0
  -38.0393   94.4844   18.0887 C   0  0  0  0  0  0  0  0  0  0  0  0
  -36.9666   93.6145   18.1602 C   0  0  0  0  0  0  0  0  0  0  0  0
  -36.5139   93.0889   19.3154 N   0  0  0  0  0  0  0  0  0  0  0  0
  -32.5136   92.9116   18.9247 C   0  0  0  0  0  0  0  0  0  0  0  0
  -31.6958   93.7463   18.4122 O   0  0  0  0  0  0  0  0  0  0  0  0
  -32.3852   92.7247   20.2861 O   0  0  0  0  0  0  0  0  0  0  0  0
  -34.2963   90.9360   15.9253 S   0  0  2  0  0  5  0  0  0  0  0  0
  -33.9013   89.8742   14.9364 O   0  0  0  0  0  0  0  0  0  0  0  0
  -34.8172   92.3404   15.1969 O   0  0  0  0  0  0  0  0  0  0  0  0
  2  1  1  1
  2  3  1  0
  3  4  1  0
  4  5  1  0
  5  6  2  0
  5  7  1  0
  7  8  1  0
  8  9  2  0
  9 10  1  0
 10 11  2  0
 11 12  1  0
 11 13  1  0
 13 14  1  0
 13 15  2  0
  2 16  1  0
 16 17  1  1
 17 18  1  0
 18 19  2  0
 19 20  1  0
 20 21  2  0
 19 22  1  0
 22 23  2  0
 23 24  1  0
 24 25  2  0
 25 26  1  0
 26 27  2  0
 27 28  1  0
 16 29  1  0
 29 30  2  0
 29 31  1  0
  2 32  1  0
 32 33  2  0
 32 34  1  6
 15  8  1  0
 28 18  1  0
 28 23  1  0
M  CHG  3  31  -1  32   1  34  -1
M  END
>  <shape_align_shape_tanimoto>  (1) 
0.5442658376701629

>  <shape_align_color_tanimoto>  (1) 
0.013853882661367422

>  <metric>  (1) 
shape

>  <metric_score>  (1) 
0.544

>  <template_pid>  (1) 
3D4F

>  <template_shape_score>  (1) 
0.544

>  <template_color_score>  (1) 
0.014

>  <template_combo_score>  (1) 
0.279

$$$$
3D4F_color_pose
     RDKit          3D

 34 36  0  0  0  0  0  0  0  0999 V2000
  -28.8195   89.9656   17.4277 C   0  0  0  0  0  0  0  0  0  0  0  0
  -29.5675   91.1298   18.0644 C   0  0  2  0  0  0  0  0  0  0  0  0
  -31.0409   90.7816   17.8690 C   0  0  0  0  0  0  0  0  0  0  0  0
  -31.9336   91.7083   18.3236 O   0  0  0  0  0  0  0  0  0  0  0  0
  -32.4470   92.1348   19.4795 C   0  0  0  0  0  0  0  0  0  0  0  0
  -32.1390   91.5914   20.5569 O   0  0  0  0  0  0  0  0  0  0  0  0
  -33.3968   93.2863   19.4616 C   0  0  0  0  0  0  0  0  0  0  0  0
  -34.8023   92.9631   19.6394 C   0  0  0  0  0  0  0  0  0  0  0  0
  -35.5432   92.7440   18.4621 C   0  0  0  0  0  0  0  0  0  0  0  0
  -36.8789   92.4609   18.4722 C   0  0  0  0  0  0  0  0  0  0  0  0
  -37.5562   92.3807   19.6448 C   0  0  0  0  0  0  0  0  0  0  0  0
  -38.9085   92.0892   19.6037 O   0  0  0  0  0  0  0  0  0  0  0  0
  -36.8532   92.5922   20.8101 C   0  0  0  0  0  0  0  0  0  0  0  0
  -37.5594   92.5073   22.0262 O   0  0  0  0  0  0  0  0  0  0  0  0
  -35.4878   92.8816   20.8198 C   0  0  0  0  0  0  0  0  0  0  0  0
  -29.3068   92.4112   17.3103 C   0  0  1  0  0  0  0  0  0  0  0  0
  -27.9218   92.7881   17.2583 N   0  0  0  0  0  0  0  0  0  0  0  0
  -27.3371   93.9584   16.7491 C   0  0  0  0  0  0  0  0  0  0  0  0
  -25.9618   94.1218   16.5933 C   0  0  0  0  0  0  0  0  0  0  0  0
  -24.8829   93.1720   16.8456 C   0  0  0  0  0  0  0  0  0  0  0  0
  -25.0584   91.9963   17.2470 O   0  0  0  0  0  0  0  0  0  0  0  0
  -25.7315   95.3850   16.1176 C   0  0  0  0  0  0  0  0  0  0  0  0
  -26.9454   96.0108   15.9752 C   0  0  0  0  0  0  0  0  0  0  0  0
  -27.2112   97.2872   15.5363 C   0  0  0  0  0  0  0  0  0  0  0  0
  -28.5142   97.7203   15.4753 C   0  0  0  0  0  0  0  0  0  0  0  0
  -29.4990   96.8505   15.8603 C   0  0  0  0  0  0  0  0  0  0  0  0
  -29.1622   95.5739   16.2943 C   0  0  0  0  0  0  0  0  0  0  0  0
  -27.8968   95.1303   16.3609 N   0  0  0  0  0  0  0  0  0  0  0  0
  -29.7708   92.2492   15.9185 C   0  0  0  0  0  0  0  0  0  0  0  0
  -30.9660   92.2338   15.5528 O   0  0  0  0  0  0  0  0  0  0  0  0
  -28.8304   92.0965   14.8795 O   0  0  0  0  0  0  0  0  0  0  0  0
  -29.1421   91.1880   19.7569 S   0  0  2  0  0  5  0  0  0  0  0  0
  -27.6201   91.1900   19.9139 O   0  0  0  0  0  0  0  0  0  0  0  0
  -29.6397   89.7752   20.5060 O   0  0  0  0  0  0  0  0  0  0  0  0
  2  1  1  6
  2  3  1  0
  3  4  1  0
  4  5  1  0
  5  6  2  0
  5  7  1  0
  7  8  1  0
  8  9  2  0
  9 10  1  0
 10 11  2  0
 11 12  1  0
 11 13  1  0
 13 14  1  0
 13 15  2  0
  2 16  1  0
 16 17  1  6
 17 18  1  0
 18 19  2  0
 19 20  1  0
 20 21  2  0
 19 22  1  0
 22 23  2  0
 23 24  1  0
 24 25  2  0
 25 26  1  0
 26 27  2  0
 27 28  1  0
 16 29  1  0
 29 30  2  0
 29 31  1  0
  2 32  1  0
 32 33  2  0
 32 34  1  1
 15  8  1  0
 28 18  1  0
 28 23  1  0
M  CHG  3  31  -1  32   1  34  -1
M  END
>  <shape_align_shape_tanimoto>  (2) 
0.49101792073846584

>  <shape_align_color_tanimoto>  (2) 
0.12563958063354669

>  <metric>  (2) 
color

>  <metric_score>  (2) 
0.126

>  <template_pid>  (2) 
3D4F

>  <template_shape_score>  (2) 
0.491

>  <template_color_score>  (2) 
0.126

>  <template_combo_score>  (2) 
0.308

$$$$
3D4F_combo_pose
     RDKit          3D

 34 36  0  0  0  0  0  0  0  0999 V2000
  -29.7421   93.0172   14.6396 C   0  0  0  0  0  0  0  0  0  0  0  0
  -29.9694   92.0456   15.8768 C   0  0  2  0  0  0  0  0  0  0  0  0
  -31.2981   92.6003   16.3431 C   0  0  0  0  0  0  0  0  0  0  0  0
  -31.9776   92.1324   17.3340 O   0  0  0  0  0  0  0  0  0  0  0  0
  -32.6536   91.6654   18.3290 C   0  0  0  0  0  0  0  0  0  0  0  0
  -32.0972   91.7612   19.4832 O   0  0  0  0  0  0  0  0  0  0  0  0
  -34.0030   91.0175   18.3726 C   0  0  0  0  0  0  0  0  0  0  0  0
  -34.8899   91.8403   19.2279 C   0  0  0  0  0  0  0  0  0  0  0  0
  -35.5867   92.8608   18.5654 C   0  0  0  0  0  0  0  0  0  0  0  0
  -36.4484   93.7027   19.2282 C   0  0  0  0  0  0  0  0  0  0  0  0
  -36.6136   93.5109   20.6003 C   0  0  0  0  0  0  0  0  0  0  0  0
  -37.4738   94.3331   21.3245 O   0  0  0  0  0  0  0  0  0  0  0  0
  -35.9226   92.4947   21.2721 C   0  0  0  0  0  0  0  0  0  0  0  0
  -36.0966   92.3166   22.6343 O   0  0  0  0  0  0  0  0  0  0  0  0
  -35.0520   91.6505   20.5796 C   0  0  0  0  0  0  0  0  0  0  0  0
  -28.7793   92.2531   16.6773 C   0  0  1  0  0  0  0  0  0  0  0  0
  -28.4445   91.6000   17.8681 N   0  0  0  0  0  0  0  0  0  0  0  0
  -28.8954   91.5785   19.1896 C   0  0  0  0  0  0  0  0  0  0  0  0
  -28.9310   92.5898   20.1118 C   0  0  0  0  0  0  0  0  0  0  0  0
  -28.5551   93.9717   20.0638 C   0  0  0  0  0  0  0  0  0  0  0  0
  -28.0268   94.5664   19.0902 O   0  0  0  0  0  0  0  0  0  0  0  0
  -29.4120   91.9893   21.2871 C   0  0  0  0  0  0  0  0  0  0  0  0
  -29.6535   90.6571   21.0654 C   0  0  0  0  0  0  0  0  0  0  0  0
  -30.1232   89.6713   21.9235 C   0  0  0  0  0  0  0  0  0  0  0  0
  -30.2756   88.3941   21.4644 C   0  0  0  0  0  0  0  0  0  0  0  0
  -29.9540   88.1350   20.1574 C   0  0  0  0  0  0  0  0  0  0  0  0
  -29.4902   89.1568   19.3469 C   0  0  0  0  0  0  0  0  0  0  0  0
  -29.3346   90.4238   19.7853 N   0  0  0  0  0  0  0  0  0  0  0  0
  -27.4969   92.2272   15.8354 C   0  0  0  0  0  0  0  0  0  0  0  0
  -26.6660   91.2824   16.0067 O   0  0  0  0  0  0  0  0  0  0  0  0
  -27.1840   93.1715   14.9020 O   0  0  0  0  0  0  0  0  0  0  0  0
  -30.2548   90.4674   15.1750 S   0  0  2  0  0  5  0  0  0  0  0  0
  -30.6666   89.4046   16.1028 O   0  0  0  0  0  0  0  0  0  0  0  0
  -28.9241   89.9681   14.2712 O   0  0  0  0  0  0  0  0  0  0  0  0
  2  1  1  6
  2  3  1  0
  3  4  1  0
  4  5  1  0
  5  6  2  0
  5  7  1  0
  7  8  1  0
  8  9  2  0
  9 10  1  0
 10 11  2  0
 11 12  1  0
 11 13  1  0
 13 14  1  0
 13 15  2  0
  2 16  1  0
 16 17  1  1
 17 18  1  0
 18 19  2  0
 19 20  1  0
 20 21  2  0
 19 22  1  0
 22 23  2  0
 23 24  1  0
 24 25  2  0
 25 26  1  0
 26 27  2  0
 27 28  1  0
 16 29  1  0
 29 30  2  0
 29 31  1  0
  2 32  1  0
 32 33  2  0
 32 34  1  1
 15  8  1  0
 28 18  1  0
 28 23  1  0
M  CHG  3  31  -1  32   1  34  -1
M  END
>  <shape_align_shape_tanimoto>  (3) 
0.53481242602443047

>  <shape_align_color_tanimoto>  (3) 
0.088148979491219248

>  <metric>  (3) 
combo

>  <metric_score>  (3) 
0.311

>  <template_pid>  (3) 
3D4F

>  <template_shape_score>  (3) 
0.535

>  <template_color_score>  (3) 
0.088

>  <template_combo_score>  (3) 
0.311

$$$$
