6QGE_shape_pose
     RDKit          3D

 39 43  0  0  0  0  0  0  0  0999 V2000
    9.0489    5.3389    4.5749 O   0  0  0  0  0  0  0  0  0  0  0  0
    8.1748    6.4378    4.7316 C   0  0  0  0  0  0  0  0  0  0  0  0
    8.1354    7.2829    3.4758 C   0  0  1  0  0  0  0  0  0  0  0  0
    7.2897    8.3253    3.6549 O   0  0  0  0  0  0  0  0  0  0  0  0
    7.7287    9.5699    3.2008 C   0  0  1  0  0  0  0  0  0  0  0  0
    8.6079   10.3923    4.5191 S   0  0  0  0  0  0  0  0  0  0  0  0
    7.5381   10.8507    5.8639 C   0  0  0  0  0  0  0  0  0  0  0  0
    6.7282   12.0665    5.5864 C   0  0  1  0  0  0  0  0  0  0  0  0
    7.7115   13.0972    5.3778 O   0  0  0  0  0  0  0  0  0  0  0  0
    5.8751   12.0868    4.3533 C   0  0  0  0  0  0  0  0  0  0  0  0
    5.1311   13.3729    4.2944 N   0  0  0  0  0  0  0  0  0  0  0  0
    5.5177   14.5191    3.7171 C   0  0  0  0  0  0  0  0  0  0  0  0
    4.5421   15.4797    3.8806 C   0  0  0  0  0  0  0  0  0  0  0  0
    4.6133   16.8505    3.3820 C   0  0  0  0  0  0  0  0  0  0  0  0
    3.6023   17.7677    3.5741 C   0  0  0  0  0  0  0  0  0  0  0  0
    3.7001   19.0741    3.0805 C   0  0  0  0  0  0  0  0  0  0  0  0
    4.8456   19.4657    2.3756 C   0  0  0  0  0  0  0  0  0  0  0  0
    5.8581   18.5474    2.1831 C   0  0  0  0  0  0  0  0  0  0  0  0
    6.9896   18.9011    1.4975 F   0  0  0  0  0  0  0  0  0  0  0  0
    5.7229   17.2764    2.6834 C   0  0  0  0  0  0  0  0  0  0  0  0
    3.5619   14.8719    4.5732 N   0  0  0  0  0  0  0  0  0  0  0  0
    3.9277   13.6031    4.8168 N   0  0  0  0  0  0  0  0  0  0  0  0
    8.5093    9.5077    1.9136 C   0  0  2  0  0  0  0  0  0  0  0  0
    7.5930    9.3326    0.8706 O   0  0  0  0  0  0  0  0  0  0  0  0
    9.6178    8.5052    1.8950 C   0  0  1  0  0  0  0  0  0  0  0  0
   10.9004    9.0906    1.6759 N   0  0  0  0  0  0  0  0  0  0  0  0
   11.6499    9.8050    2.5400 C   0  0  0  0  0  0  0  0  0  0  0  0
   12.8239   10.1898    1.9200 C   0  0  0  0  0  0  0  0  0  0  0  0
   13.9209   10.9759    2.4740 C   0  0  0  0  0  0  0  0  0  0  0  0
   13.8537   11.4302    3.7956 C   0  0  0  0  0  0  0  0  0  0  0  0
   14.9195   12.1711    4.2600 C   0  0  0  0  0  0  0  0  0  0  0  0
   16.0106   12.4611    3.4720 C   0  0  0  0  0  0  0  0  0  0  0  0
   16.0892   12.0130    2.1511 C   0  0  0  0  0  0  0  0  0  0  0  0
   17.1553   12.2897    1.3622 F   0  0  0  0  0  0  0  0  0  0  0  0
   15.0089   11.2638    1.6851 C   0  0  0  0  0  0  0  0  0  0  0  0
   12.7475    9.6863    0.6751 N   0  0  0  0  0  0  0  0  0  0  0  0
   11.6181    9.0507    0.5579 N   0  0  0  0  0  0  0  0  0  0  0  0
    9.5509    7.6479    3.1171 C   0  0  1  0  0  0  0  0  0  0  0  0
   10.2980    8.1275    4.1800 O   0  0  0  0  0  0  0  0  0  0  0  0
  1  2  1  0
  3  2  1  1
  3  4  1  0
  4  5  1  0
  5  6  1  1
  6  7  1  0
  7  8  1  0
  8  9  1  6
  8 10  1  0
 10 11  1  0
 11 12  1  0
 12 13  2  0
 13 14  1  0
 14 15  2  0
 15 16  1  0
 16 17  2  0
 17 18  1  0
 18 19  1  0
 18 20  2  0
 13 21  1  0
 21 22  2  0
  5 23  1  0
 23 24  1  6
 23 25  1  0
 25 26  1  1
 26 27  1  0
 27 28  2  0
 28 29  1  0
 29 30  2  0
 30 31  1  0
 31 32  2  0
 32 33  1  0
 33 34  1  0
 33 35  2  0
 28 36  1  0
 36 37  2  0
 25 38  1  0
 38 39  1  1
 38  3  1  0
 22 11  1  0
 37 26  1  0
 20 14  1  0
 35 29  1  0
M  END
>  <shape_align_shape_tanimoto>  (1) 
0.31781680082430275

>  <shape_align_color_tanimoto>  (1) 
0.054153475548250833

>  <metric>  (1) 
shape

>  <metric_score>  (1) 
0.318

>  <template_pid>  (1) 
6QGE

>  <template_shape_score>  (1) 
0.318

>  <template_color_score>  (1) 
0.054

>  <template_combo_score>  (1) 
0.186

$$$$
6QGE_color_pose
     RDKit          3D

 39 43  0  0  0  0  0  0  0  0999 V2000
   10.9276    4.9522    2.7707 O   0  0  0  0  0  0  0  0  0  0  0  0
   11.0398    6.1755    3.4376 C   0  0  0  0  0  0  0  0  0  0  0  0
    9.6744    6.8349    3.5868 C   0  0  1  0  0  0  0  0  0  0  0  0
    9.8533    8.0419    4.2567 O   0  0  0  0  0  0  0  0  0  0  0  0
    8.6068    8.7649    4.1986 C   0  0  1  0  0  0  0  0  0  0  0  0
    8.4506    9.6224    5.6987 S   0  0  0  0  0  0  0  0  0  0  0  0
    7.1028   10.5475    6.2367 C   0  0  0  0  0  0  0  0  0  0  0  0
    6.8197   11.9227    5.7513 C   0  0  1  0  0  0  0  0  0  0  0  0
    7.9254   12.7536    6.0644 O   0  0  0  0  0  0  0  0  0  0  0  0
    6.5597   12.0568    4.3007 C   0  0  0  0  0  0  0  0  0  0  0  0
    6.2609   13.4596    3.9397 N   0  0  0  0  0  0  0  0  0  0  0  0
    5.0199   14.0325    3.9143 C   0  0  0  0  0  0  0  0  0  0  0  0
    5.1955   15.3511    3.5314 C   0  0  0  0  0  0  0  0  0  0  0  0
    4.2077   16.4046    3.3472 C   0  0  0  0  0  0  0  0  0  0  0  0
    4.6703   17.6521    2.9565 C   0  0  0  0  0  0  0  0  0  0  0  0
    3.7984   18.7209    2.7543 C   0  0  0  0  0  0  0  0  0  0  0  0
    2.4363   18.5132    2.9534 C   0  0  0  0  0  0  0  0  0  0  0  0
    1.9567   17.2601    3.3471 C   0  0  0  0  0  0  0  0  0  0  0  0
    0.6165   17.0485    3.5430 F   0  0  0  0  0  0  0  0  0  0  0  0
    2.8448   16.1962    3.5465 C   0  0  0  0  0  0  0  0  0  0  0  0
    6.5145   15.5293    3.3417 N   0  0  0  0  0  0  0  0  0  0  0  0
    7.1489   14.3966    3.5862 N   0  0  0  0  0  0  0  0  0  0  0  0
    8.5565    9.4564    2.8837 C   0  0  2  0  0  0  0  0  0  0  0  0
    7.2240    9.5878    2.4224 O   0  0  0  0  0  0  0  0  0  0  0  0
    9.2195    8.5488    1.8277 C   0  0  1  0  0  0  0  0  0  0  0  0
   10.5973    8.9585    1.6976 N   0  0  0  0  0  0  0  0  0  0  0  0
   11.3348    9.7981    2.4436 C   0  0  0  0  0  0  0  0  0  0  0  0
   12.5985    9.8621    1.8972 C   0  0  0  0  0  0  0  0  0  0  0  0
   13.7660   10.6247    2.3176 C   0  0  0  0  0  0  0  0  0  0  0  0
   14.9142   10.5056    1.5711 C   0  0  0  0  0  0  0  0  0  0  0  0
   16.0572   11.2112    1.9348 C   0  0  0  0  0  0  0  0  0  0  0  0
   16.0627   12.0473    3.0554 C   0  0  0  0  0  0  0  0  0  0  0  0
   14.8860   12.1434    3.7855 C   0  0  0  0  0  0  0  0  0  0  0  0
   14.8231   12.9355    4.8836 F   0  0  0  0  0  0  0  0  0  0  0  0
   13.7556   11.4466    3.4271 C   0  0  0  0  0  0  0  0  0  0  0  0
   12.5795    9.0484    0.8261 N   0  0  0  0  0  0  0  0  0  0  0  0
   11.3732    8.5012    0.7027 N   0  0  0  0  0  0  0  0  0  0  0  0
    9.0306    7.1253    2.2731 C   0  0  1  0  0  0  0  0  0  0  0  0
    9.4159    6.2252    1.2744 O   0  0  0  0  0  0  0  0  0  0  0  0
  1  2  1  0
  3  2  1  6
  3  4  1  0
  4  5  1  0
  5  6  1  1
  6  7  1  0
  7  8  1  0
  8  9  1  6
  8 10  1  0
 10 11  1  0
 11 12  1  0
 12 13  2  0
 13 14  1  0
 14 15  2  0
 15 16  1  0
 16 17  2  0
 17 18  1  0
 18 19  1  0
 18 20  2  0
 13 21  1  0
 21 22  2  0
  5 23  1  0
 23 24  1  6
 23 25  1  0
 25 26  1  1
 26 27  1  0
 27 28  2  0
 28 29  1  0
 29 30  2  0
 30 31  1  0
 31 32  2  0
 32 33  1  0
 33 34  1  0
 33 35  2  0
 28 36  1  0
 36 37  2  0
 25 38  1  0
 38 39  1  6
 38  3  1  0
 22 11  1  0
 37 26  1  0
 20 14  1  0
 35 29  1  0
M  END
>  <shape_align_shape_tanimoto>  (2) 
0.31701520733278105

>  <shape_align_color_tanimoto>  (2) 
0.090625230288344752

>  <metric>  (2) 
color

>  <metric_score>  (2) 
0.091

>  <template_pid>  (2) 
6QGE

>  <template_shape_score>  (2) 
0.317

>  <template_color_score>  (2) 
0.091

>  <template_combo_score>  (2) 
0.204

$$$$
6QGE_combo_pose
     RDKit          3D

 39 43  0  0  0  0  0  0  0  0999 V2000
   10.9276    4.9522    2.7707 O   0  0  0  0  0  0  0  0  0  0  0  0
   11.0398    6.1755    3.4376 C   0  0  0  0  0  0  0  0  0  0  0  0
    9.6744    6.8349    3.5868 C   0  0  1  0  0  0  0  0  0  0  0  0
    9.8533    8.0419    4.2567 O   0  0  0  0  0  0  0  0  0  0  0  0
    8.6068    8.7649    4.1986 C   0  0  1  0  0  0  0  0  0  0  0  0
    8.4506    9.6224    5.6987 S   0  0  0  0  0  0  0  0  0  0  0  0
    7.1028   10.5475    6.2367 C   0  0  0  0  0  0  0  0  0  0  0  0
    6.8197   11.9227    5.7513 C   0  0  1  0  0  0  0  0  0  0  0  0
    7.9254   12.7536    6.0644 O   0  0  0  0  0  0  0  0  0  0  0  0
    6.5597   12.0568    4.3007 C   0  0  0  0  0  0  0  0  0  0  0  0
    6.2609   13.4596    3.9397 N   0  0  0  0  0  0  0  0  0  0  0  0
    5.0199   14.0325    3.9143 C   0  0  0  0  0  0  0  0  0  0  0  0
    5.1955   15.3511    3.5314 C   0  0  0  0  0  0  0  0  0  0  0  0
    4.2077   16.4046    3.3472 C   0  0  0  0  0  0  0  0  0  0  0  0
    4.6703   17.6521    2.9565 C   0  0  0  0  0  0  0  0  0  0  0  0
    3.7984   18.7209    2.7543 C   0  0  0  0  0  0  0  0  0  0  0  0
    2.4363   18.5132    2.9534 C   0  0  0  0  0  0  0  0  0  0  0  0
    1.9567   17.2601    3.3471 C   0  0  0  0  0  0  0  0  0  0  0  0
    0.6165   17.0485    3.5430 F   0  0  0  0  0  0  0  0  0  0  0  0
    2.8448   16.1962    3.5465 C   0  0  0  0  0  0  0  0  0  0  0  0
    6.5145   15.5293    3.3417 N   0  0  0  0  0  0  0  0  0  0  0  0
    7.1489   14.3966    3.5862 N   0  0  0  0  0  0  0  0  0  0  0  0
    8.5565    9.4564    2.8837 C   0  0  2  0  0  0  0  0  0  0  0  0
    7.2240    9.5878    2.4224 O   0  0  0  0  0  0  0  0  0  0  0  0
    9.2195    8.5488    1.8277 C   0  0  1  0  0  0  0  0  0  0  0  0
   10.5973    8.9585    1.6976 N   0  0  0  0  0  0  0  0  0  0  0  0
   11.3348    9.7981    2.4436 C   0  0  0  0  0  0  0  0  0  0  0  0
   12.5985    9.8621    1.8972 C   0  0  0  0  0  0  0  0  0  0  0  0
   13.7660   10.6247    2.3176 C   0  0  0  0  0  0  0  0  0  0  0  0
   14.9142   10.5056    1.5711 C   0  0  0  0  0  0  0  0  0  0  0  0
   16.0572   11.2112    1.9348 C   0  0  0  0  0  0  0  0  0  0  0  0
   16.0627   12.0473    3.0554 C   0  0  0  0  0  0  0  0  0  0  0  0
   14.8860   12.1434    3.7855 C   0  0  0  0  0  0  0  0  0  0  0  0
   14.8231   12.9355    4.8836 F   0  0  0  0  0  0  0  0  0  0  0  0
   13.7556   11.4466    3.4271 C   0  0  0  0  0  0  0  0  0  0  0  0
   12.5795    9.0484    0.8261 N   0  0  0  0  0  0  0  0  0  0  0  0
   11.3732    8.5012    0.7027 N   0  0  0  0  0  0  0  0  0  0  0  0
    9.0306    7.1253    2.2731 C   0  0  1  0  0  0  0  0  0  0  0  0
    9.4159    6.2252    1.2744 O   0  0  0  0  0  0  0  0  0  0  0  0
  1  2  1  0
  3  2  1  6
  3  4  1  0
  4  5  1  0
  5  6  1  1
  6  7  1  0
  7  8  1  0
  8  9  1  6
  8 10  1  0
 10 11  1  0
 11 12  1  0
 12 13  2  0
 13 14  1  0
 14 15  2  0
 15 16  1  0
 16 17  2  0
 17 18  1  0
 18 19  1  0
 18 20  2  0
 13 21  1  0
 21 22  2  0
  5 23  1  0
 23 24  1  6
 23 25  1  0
 25 26  1  1
 26 27  1  0
 27 28  2  0
 28 29  1  0
 29 30  2  0
 30 31  1  0
 31 32  2  0
 32 33  1  0
 33 34  1  0
 33 35  2  0
 28 36  1  0
 36 37  2  0
 25 38  1  0
 38 39  1  6
 38  3  1  0
 22 11  1  0
 37 26  1  0
 20 14  1  0
 35 29  1  0
M  END
>  <shape_align_shape_tanimoto>  (3) 
0.31701520733278105

>  <shape_align_color_tanimoto>  (3) 
0.090625230288344752

>  <metric>  (3) 
combo

>  <metric_score>  (3) 
0.204

>  <template_pid>  (3) 
6QGE

>  <template_shape_score>  (3) 
0.317

>  <template_color_score>  (3) 
0.091

>  <template_combo_score>  (3) 
0.204

$$$$
