4AMZ_shape_pose
     RDKit          3D

 25 27  0  0  0  0  0  0  0  0999 V2000
   13.3197   44.7551   41.5741 O   0  0  0  0  0  0  0  0  0  0  0  0
   14.5000   45.3336   41.4588 C   0  0  0  0  0  0  0  0  0  0  0  0
   15.5741   44.5326   42.0019 C   0  0  2  0  0  0  0  0  0  0  0  0
   15.4374   44.3335   43.5171 C   0  0  0  0  0  0  0  0  0  0  0  0
   16.3624   45.3654   44.0707 C   0  0  0  0  0  0  0  0  0  0  0  0
   17.3674   45.6022   43.0039 C   0  0  0  0  0  0  0  0  0  0  0  0
   16.9358   44.9021   41.8137 N   0  0  0  0  0  0  0  0  0  0  0  0
   17.7211   44.5806   40.6397 C   0  0  0  0  0  0  0  0  0  0  0  0
   17.2017   43.9633   39.6777 O   0  0  0  0  0  0  0  0  0  0  0  0
   19.0185   44.9719   40.6326 O   0  0  0  0  0  0  0  0  0  0  0  0
   19.9424   44.7667   39.6131 C   0  0  0  0  0  0  0  0  0  0  0  0
   19.6261   45.3515   38.3118 C   0  0  0  0  0  0  0  0  0  0  0  0
   20.0088   46.6721   38.0504 C   0  0  0  0  0  0  0  0  0  0  0  0
   19.7513   47.2841   36.8451 C   0  0  0  0  0  0  0  0  0  0  0  0
   19.0987   46.6193   35.8300 C   0  0  0  0  0  0  0  0  0  0  0  0
   18.7103   45.3134   36.0631 C   0  0  0  0  0  0  0  0  0  0  0  0
   18.9756   44.7069   37.2825 C   0  0  0  0  0  0  0  0  0  0  0  0
   14.4728   46.5775   40.8491 N   0  0  0  0  0  0  0  0  0  0  0  0
   15.5721   47.4762   40.5837 C   0  0  0  0  0  0  0  0  0  0  0  0
   15.3453   48.7243   41.4465 C   0  0  0  0  0  0  0  0  0  0  0  0
   14.0221   49.3405   41.1183 C   0  0  0  0  0  0  0  0  0  0  0  0
   13.3240   48.5446   40.0501 C   0  0  0  0  0  0  0  0  0  0  0  0
   13.1603   47.0841   40.3977 C   0  0  1  0  0  0  0  0  0  0  0  0
   12.7110   46.3661   39.1489 C   0  0  0  0  0  0  0  0  0  0  0  0
   13.5727   46.5127   38.0929 O   0  0  0  0  0  0  0  0  0  0  0  0
  1  2  2  0
  3  2  1  1
  3  4  1  0
  4  5  1  0
  5  6  1  0
  6  7  1  0
  7  8  1  0
  8  9  2  0
  8 10  1  0
 10 11  1  0
 11 12  1  0
 12 13  2  0
 13 14  1  0
 14 15  2  0
 15 16  1  0
 16 17  2  0
  2 18  1  0
 18 19  1  0
 19 20  1  0
 20 21  1  0
 21 22  1  0
 22 23  1  0
 23 24  1  6
 24 25  1  0
  7  3  1  0
 17 12  1  0
 23 18  1  0
M  END
>  <shape_align_shape_tanimoto>  (1) 
0.51643681544739262

>  <shape_align_color_tanimoto>  (1) 
0.016094665784713236

>  <metric>  (1) 
shape

>  <metric_score>  (1) 
0.516

>  <template_pid>  (1) 
4AMZ

>  <template_shape_score>  (1) 
0.516

>  <template_color_score>  (1) 
0.016

>  <template_combo_score>  (1) 
0.266

$$$$
4AMZ_color_pose
     RDKit          3D

 25 27  0  0  0  0  0  0  0  0999 V2000
   17.1527   44.8219   43.3861 O   0  0  0  0  0  0  0  0  0  0  0  0
   16.4757   44.9232   42.2686 C   0  0  0  0  0  0  0  0  0  0  0  0
   15.0864   45.2706   42.4441 C   0  0  2  0  0  0  0  0  0  0  0  0
   14.3713   44.1359   43.1890 C   0  0  0  0  0  0  0  0  0  0  0  0
   13.7314   43.4146   42.0484 C   0  0  0  0  0  0  0  0  0  0  0  0
   13.4223   44.4693   41.0575 C   0  0  0  0  0  0  0  0  0  0  0  0
   14.2421   45.6167   41.3794 N   0  0  0  0  0  0  0  0  0  0  0  0
   14.1792   46.9070   40.7305 C   0  0  0  0  0  0  0  0  0  0  0  0
   13.3405   47.0281   39.8149 O   0  0  0  0  0  0  0  0  0  0  0  0
   15.0131   47.9267   41.1246 O   0  0  0  0  0  0  0  0  0  0  0  0
   15.0715   49.2192   40.6008 C   0  0  0  0  0  0  0  0  0  0  0  0
   13.7894   49.9250   40.7494 C   0  0  0  0  0  0  0  0  0  0  0  0
   12.8035   49.9876   39.7990 C   0  0  0  0  0  0  0  0  0  0  0  0
   11.6029   50.6600   39.9945 C   0  0  0  0  0  0  0  0  0  0  0  0
   11.3725   51.2983   41.1868 C   0  0  0  0  0  0  0  0  0  0  0  0
   12.3471   51.2508   42.1581 C   0  0  0  0  0  0  0  0  0  0  0  0
   13.5230   50.5862   41.9532 C   0  0  0  0  0  0  0  0  0  0  0  0
   17.2165   44.6770   41.1096 N   0  0  0  0  0  0  0  0  0  0  0  0
   16.7713   44.6822   39.7557 C   0  0  0  0  0  0  0  0  0  0  0  0
   16.9654   43.2586   39.2024 C   0  0  0  0  0  0  0  0  0  0  0  0
   18.3695   42.7787   39.3301 C   0  0  0  0  0  0  0  0  0  0  0  0
   19.2559   43.6605   40.1250 C   0  0  0  0  0  0  0  0  0  0  0  0
   18.6701   44.3708   41.2748 C   0  0  1  0  0  0  0  0  0  0  0  0
   19.4285   45.6790   41.4321 C   0  0  0  0  0  0  0  0  0  0  0  0
   19.0423   46.4293   42.5110 O   0  0  0  0  0  0  0  0  0  0  0  0
  1  2  2  0
  3  2  1  6
  3  4  1  0
  4  5  1  0
  5  6  1  0
  6  7  1  0
  7  8  1  0
  8  9  2  0
  8 10  1  0
 10 11  1  0
 11 12  1  0
 12 13  2  0
 13 14  1  0
 14 15  2  0
 15 16  1  0
 16 17  2  0
  2 18  1  0
 18 19  1  0
 19 20  1  0
 20 21  1  0
 21 22  1  0
 22 23  1  0
 23 24  1  6
 24 25  1  0
  7  3  1  0
 17 12  1  0
 23 18  1  0
M  END
>  <shape_align_shape_tanimoto>  (2) 
0.45732114724241207

>  <shape_align_color_tanimoto>  (2) 
0.097399925829368017

>  <metric>  (2) 
color

>  <metric_score>  (2) 
0.097

>  <template_pid>  (2) 
4AMZ

>  <template_shape_score>  (2) 
0.457

>  <template_color_score>  (2) 
0.097

>  <template_combo_score>  (2) 
0.277

$$$$
4AMZ_combo_pose
     RDKit          3D

 25 27  0  0  0  0  0  0  0  0999 V2000
   13.4231   44.1453   42.0471 O   0  0  0  0  0  0  0  0  0  0  0  0
   14.4016   45.0111   41.9373 C   0  0  0  0  0  0  0  0  0  0  0  0
   15.5882   44.6656   42.6984 C   0  0  2  0  0  0  0  0  0  0  0  0
   15.5460   45.1722   44.1162 C   0  0  0  0  0  0  0  0  0  0  0  0
   16.9825   45.4309   44.4732 C   0  0  0  0  0  0  0  0  0  0  0  0
   17.5436   45.9524   43.1452 C   0  0  0  0  0  0  0  0  0  0  0  0
   16.8245   45.1491   42.1644 N   0  0  0  0  0  0  0  0  0  0  0  0
   17.3972   44.9012   40.8611 C   0  0  0  0  0  0  0  0  0  0  0  0
   18.5123   45.4015   40.6181 O   0  0  0  0  0  0  0  0  0  0  0  0
   16.7433   44.1368   39.9058 O   0  0  0  0  0  0  0  0  0  0  0  0
   17.3257   43.9065   38.6347 C   0  0  0  0  0  0  0  0  0  0  0  0
   16.3845   43.0577   37.8607 C   0  0  0  0  0  0  0  0  0  0  0  0
   15.3908   43.5651   37.0519 C   0  0  0  0  0  0  0  0  0  0  0  0
   14.5496   42.7200   36.3610 C   0  0  0  0  0  0  0  0  0  0  0  0
   14.7269   41.3482   36.4990 C   0  0  0  0  0  0  0  0  0  0  0  0
   15.7058   40.8455   37.2957 C   0  0  0  0  0  0  0  0  0  0  0  0
   16.5531   41.6814   37.9916 C   0  0  0  0  0  0  0  0  0  0  0  0
   14.0998   46.0904   41.1111 N   0  0  0  0  0  0  0  0  0  0  0  0
   12.7592   46.0202   40.4580 C   0  0  0  0  0  0  0  0  0  0  0  0
   13.0516   45.9885   38.9753 C   0  0  0  0  0  0  0  0  0  0  0  0
   13.7139   47.2610   38.5858 C   0  0  0  0  0  0  0  0  0  0  0  0
   14.9747   47.5561   39.3460 C   0  0  0  0  0  0  0  0  0  0  0  0
   14.8557   47.2533   40.8204 C   0  0  1  0  0  0  0  0  0  0  0  0
   14.1611   48.4380   41.5234 C   0  0  0  0  0  0  0  0  0  0  0  0
   14.8940   49.6017   41.2676 O   0  0  0  0  0  0  0  0  0  0  0  0
  1  2  2  0
  3  2  1  6
  3  4  1  0
  4  5  1  0
  5  6  1  0
  6  7  1  0
  7  8  1  0
  8  9  2  0
  8 10  1  0
 10 11  1  0
 11 12  1  0
 12 13  2  0
 13 14  1  0
 14 15  2  0
 15 16  1  0
 16 17  2  0
  2 18  1  0
 18 19  1  0
 19 20  1  0
 20 21  1  0
 21 22  1  0
 22 23  1  0
 23 24  1  1
 24 25  1  0
  7  3  1  0
 17 12  1  0
 23 18  1  0
M  END
>  <shape_align_shape_tanimoto>  (3) 
0.49705915143719298

>  <shape_align_color_tanimoto>  (3) 
0.088053744461100966

>  <metric>  (3) 
combo

>  <metric_score>  (3) 
0.293

>  <template_pid>  (3) 
4AMZ

>  <template_shape_score>  (3) 
0.497

>  <template_color_score>  (3) 
0.088

>  <template_combo_score>  (3) 
0.293

$$$$
