5FCZ_shape_pose
     RDKit          3D

 14 14  0  0  0  0  0  0  0  0999 V2000
  -34.8796   92.7808   20.9991 C   0  0  0  0  0  0  0  0  0  0  0  0
  -35.2687   92.6512   19.5759 C   0  0  0  0  0  0  0  0  0  0  0  0
  -36.8822   92.8197   19.2510 S   0  0  0  0  0  0  0  0  0  0  0  0
  -34.3618   92.3993   18.5200 N   0  0  0  0  0  0  0  0  0  0  0  0
  -32.9524   92.2275   18.6512 C   0  0  1  0  0  0  0  0  0  0  0  0
  -32.5308   91.0233   19.4559 C   0  0  0  0  0  0  0  0  0  0  0  0
  -31.1931   91.1579   19.7874 O   0  0  0  0  0  0  0  0  0  0  0  0
  -30.3579   91.2398   18.6885 C   0  0  2  0  0  0  0  0  0  0  0  0
  -29.0158   91.7217   19.2116 C   0  0  0  0  0  0  0  0  0  0  0  0
  -28.4998   90.8380   20.1446 O   0  0  0  0  0  0  0  0  0  0  0  0
  -30.7820   92.1888   17.6223 C   0  0  1  0  0  0  0  0  0  0  0  0
  -29.9701   91.9853   16.5161 O   0  0  0  0  0  0  0  0  0  0  0  0
  -32.2623   92.0517   17.3064 C   0  0  2  0  0  0  0  0  0  0  0  0
  -32.6640   92.9551   16.3590 O   0  0  0  0  0  0  0  0  0  0  0  0
  1  2  1  0
  2  3  2  0
  2  4  1  0
  5  4  1  6
  5  6  1  0
  6  7  1  0
  7  8  1  0
  8  9  1  1
  9 10  1  0
  8 11  1  0
 11 12  1  6
 11 13  1  0
 13 14  1  6
 13  5  1  0
M  END
>  <shape_align_shape_tanimoto>  (1) 
0.77984913987080429

>  <shape_align_color_tanimoto>  (1) 
0.057764551486063395

>  <metric>  (1) 
shape

>  <metric_score>  (1) 
0.780

>  <template_pid>  (1) 
5FCZ

>  <template_shape_score>  (1) 
0.780

>  <template_color_score>  (1) 
0.058

>  <template_combo_score>  (1) 
0.419

$$$$
5FCZ_color_pose
     RDKit          3D

 14 14  0  0  0  0  0  0  0  0999 V2000
  -28.2812   92.3166   20.4458 C   0  0  0  0  0  0  0  0  0  0  0  0
  -29.1464   91.5009   19.5222 C   0  0  0  0  0  0  0  0  0  0  0  0
  -28.9639   89.8753   19.6399 S   0  0  0  0  0  0  0  0  0  0  0  0
  -30.0541   92.1070   18.6124 N   0  0  0  0  0  0  0  0  0  0  0  0
  -30.9048   91.3657   17.7087 C   0  0  1  0  0  0  0  0  0  0  0  0
  -31.8159   90.4975   18.5530 C   0  0  0  0  0  0  0  0  0  0  0  0
  -32.1741   91.3258   19.6318 O   0  0  0  0  0  0  0  0  0  0  0  0
  -32.9688   92.3785   19.2718 C   0  0  2  0  0  0  0  0  0  0  0  0
  -34.4152   91.9178   19.2842 C   0  0  0  0  0  0  0  0  0  0  0  0
  -35.2487   92.9861   18.9169 O   0  0  0  0  0  0  0  0  0  0  0  0
  -32.6303   93.0932   18.0163 C   0  0  1  0  0  0  0  0  0  0  0  0
  -32.0550   94.3611   18.2586 O   0  0  0  0  0  0  0  0  0  0  0  0
  -31.8479   92.3309   17.0045 C   0  0  2  0  0  0  0  0  0  0  0  0
  -32.7304   91.5221   16.2604 O   0  0  0  0  0  0  0  0  0  0  0  0
  1  2  1  0
  2  3  2  0
  2  4  1  0
  5  4  1  1
  5  6  1  0
  6  7  1  0
  7  8  1  0
  8  9  1  6
  9 10  1  0
  8 11  1  0
 11 12  1  1
 11 13  1  0
 13 14  1  6
 13  5  1  0
M  END
>  <shape_align_shape_tanimoto>  (2) 
0.5773817258703613

>  <shape_align_color_tanimoto>  (2) 
0.10794497845672246

>  <metric>  (2) 
color

>  <metric_score>  (2) 
0.108

>  <template_pid>  (2) 
5FCZ

>  <template_shape_score>  (2) 
0.577

>  <template_color_score>  (2) 
0.108

>  <template_combo_score>  (2) 
0.343

$$$$
5FCZ_combo_pose
     RDKit          3D

 14 14  0  0  0  0  0  0  0  0999 V2000
  -34.8796   92.7808   20.9991 C   0  0  0  0  0  0  0  0  0  0  0  0
  -35.2687   92.6512   19.5759 C   0  0  0  0  0  0  0  0  0  0  0  0
  -36.8822   92.8197   19.2510 S   0  0  0  0  0  0  0  0  0  0  0  0
  -34.3618   92.3993   18.5200 N   0  0  0  0  0  0  0  0  0  0  0  0
  -32.9524   92.2275   18.6512 C   0  0  1  0  0  0  0  0  0  0  0  0
  -32.5308   91.0233   19.4559 C   0  0  0  0  0  0  0  0  0  0  0  0
  -31.1931   91.1579   19.7874 O   0  0  0  0  0  0  0  0  0  0  0  0
  -30.3579   91.2398   18.6885 C   0  0  2  0  0  0  0  0  0  0  0  0
  -29.0158   91.7217   19.2116 C   0  0  0  0  0  0  0  0  0  0  0  0
  -28.4998   90.8380   20.1446 O   0  0  0  0  0  0  0  0  0  0  0  0
  -30.7820   92.1888   17.6223 C   0  0  1  0  0  0  0  0  0  0  0  0
  -29.9701   91.9853   16.5161 O   0  0  0  0  0  0  0  0  0  0  0  0
  -32.2623   92.0517   17.3064 C   0  0  2  0  0  0  0  0  0  0  0  0
  -32.6640   92.9551   16.3590 O   0  0  0  0  0  0  0  0  0  0  0  0
  1  2  1  0
  2  3  2  0
  2  4  1  0
  5  4  1  6
  5  6  1  0
  6  7  1  0
  7  8  1  0
  8  9  1  1
  9 10  1  0
  8 11  1  0
 11 12  1  6
 11 13  1  0
 13 14  1  6
 13  5  1  0
M  END
>  <shape_align_shape_tanimoto>  (3) 
0.77984913987080429

>  <shape_align_color_tanimoto>  (3) 
0.057764551486063395

>  <metric>  (3) 
combo

>  <metric_score>  (3) 
0.419

>  <template_pid>  (3) 
5FCZ

>  <template_shape_score>  (3) 
0.780

>  <template_color_score>  (3) 
0.058

>  <template_combo_score>  (3) 
0.419

$$$$
