1QXZ_shape_pose
     RDKit          3D

 14 14  0  0  0  0  0  0  0  0999 V2000
    3.3565   12.3048   17.8386 C   0  0  0  0  0  0  0  0  0  0  0  0
    4.1539   11.5438   19.2496 S   0  0  0  0  0  0  0  0  0  0  0  0
    4.3460   12.6171   20.6546 C   0  0  0  0  0  0  0  0  0  0  0  0
    3.1077   13.0505   21.3455 C   0  0  0  0  0  0  0  0  0  0  0  0
    2.2675   11.9584   21.9349 C   0  0  2  0  0  0  0  0  0  0  0  0
    1.8235   11.0352   20.9146 N   0  0  0  0  0  0  0  0  0  0  0  0
    1.0313   12.5195   22.6113 C   0  0  0  0  0  0  0  0  0  0  0  0
    0.2337   13.1668   21.6822 O   0  0  0  0  0  0  0  0  0  0  0  0
    1.4076   13.4212   23.6150 O   0  0  0  0  0  0  0  0  0  0  0  0
    0.2548   11.3930   23.1754 C   0  0  0  0  0  0  0  0  0  0  0  0
   -0.6054   10.6467   22.9135 N   0  0  0  0  0  0  0  0  0  0  0  0
   -1.1336    9.6906   23.6348 C   0  0  0  0  0  0  0  0  0  0  0  0
   -0.6088    9.5352   24.8765 C   0  0  0  0  0  0  0  0  0  0  0  0
    0.6842   10.8551   24.9194 S   0  0  0  0  0  0  0  0  0  0  0  0
  1  2  1  0
  2  3  1  0
  3  4  1  0
  4  5  1  0
  5  6  1  6
  5  7  1  0
  7  8  1  0
  7  9  1  0
  7 10  1  0
 10 11  2  0
 11 12  1  0
 12 13  2  0
 13 14  1  0
 14 10  1  0
M  CHG  1   6   1
M  END
>  <shape_align_shape_tanimoto>  (1) 
0.72228938576306845

>  <shape_align_color_tanimoto>  (1) 
0.14370623245559636

>  <metric>  (1) 
shape

>  <metric_score>  (1) 
0.722

>  <template_pid>  (1) 
1QXZ

>  <template_shape_score>  (1) 
0.722

>  <template_color_score>  (1) 
0.144

>  <template_combo_score>  (1) 
0.433

$$$$
1QXZ_color_pose
     RDKit          3D

 14 14  0  0  0  0  0  0  0  0999 V2000
    3.3540   11.1106   19.5407 C   0  0  0  0  0  0  0  0  0  0  0  0
    3.8900   12.2744   20.7711 S   0  0  0  0  0  0  0  0  0  0  0  0
    2.5981   12.8966   21.8526 C   0  0  0  0  0  0  0  0  0  0  0  0
    1.5727   13.7345   21.1918 C   0  0  0  0  0  0  0  0  0  0  0  0
    0.4713   14.2577   22.0526 C   0  0  2  0  0  0  0  0  0  0  0  0
    0.9525   15.0520   23.1632 N   0  0  0  0  0  0  0  0  0  0  0  0
   -0.5908   13.2667   22.3754 C   0  0  0  0  0  0  0  0  0  0  0  0
   -1.7231   13.9208   22.9343 O   0  0  0  0  0  0  0  0  0  0  0  0
   -1.0870   12.8448   21.0921 O   0  0  0  0  0  0  0  0  0  0  0  0
   -0.1910   12.1041   23.1494 C   0  0  0  0  0  0  0  0  0  0  0  0
    0.0830   11.8039   24.2670 N   0  0  0  0  0  0  0  0  0  0  0  0
    0.3812   10.6271   24.7557 C   0  0  0  0  0  0  0  0  0  0  0  0
    0.3789    9.5937   23.8591 C   0  0  0  0  0  0  0  0  0  0  0  0
   -0.0692   10.3870   22.2882 S   0  0  0  0  0  0  0  0  0  0  0  0
  1  2  1  0
  2  3  1  0
  3  4  1  0
  4  5  1  0
  5  6  1  1
  5  7  1  0
  7  8  1  0
  7  9  1  0
  7 10  1  0
 10 11  2  0
 11 12  1  0
 12 13  2  0
 13 14  1  0
 14 10  1  0
M  CHG  1   6   1
M  END
>  <shape_align_shape_tanimoto>  (2) 
0.60834215117383272

>  <shape_align_color_tanimoto>  (2) 
0.205813673712611

>  <metric>  (2) 
color

>  <metric_score>  (2) 
0.206

>  <template_pid>  (2) 
1QXZ

>  <template_shape_score>  (2) 
0.608

>  <template_color_score>  (2) 
0.206

>  <template_combo_score>  (2) 
0.407

$$$$
1QXZ_combo_pose
     RDKit          3D

 14 14  0  0  0  0  0  0  0  0999 V2000
    6.3898   13.4440   20.5940 C   0  0  0  0  0  0  0  0  0  0  0  0
    5.2346   12.8480   19.3631 S   0  0  0  0  0  0  0  0  0  0  0  0
    3.9054   11.8511   20.0251 C   0  0  0  0  0  0  0  0  0  0  0  0
    2.9566   12.6384   20.9271 C   0  0  0  0  0  0  0  0  0  0  0  0
    1.8689   11.7517   21.4484 C   0  0  2  0  0  0  0  0  0  0  0  0
    1.0637   11.1616   20.4267 N   0  0  0  0  0  0  0  0  0  0  0  0
    1.0722   12.4175   22.5559 C   0  0  0  0  0  0  0  0  0  0  0  0
    1.9713   12.9442   23.4731 O   0  0  0  0  0  0  0  0  0  0  0  0
    0.2166   13.3994   22.0687 O   0  0  0  0  0  0  0  0  0  0  0  0
    0.2097   11.3312   23.2335 C   0  0  0  0  0  0  0  0  0  0  0  0
   -0.8056   10.8165   23.1850 N   0  0  0  0  0  0  0  0  0  0  0  0
   -1.3389    9.8608   23.9212 C   0  0  0  0  0  0  0  0  0  0  0  0
   -0.5446    9.4274   24.8884 C   0  0  0  0  0  0  0  0  0  0  0  0
    1.0065   10.4485   24.7019 S   0  0  0  0  0  0  0  0  0  0  0  0
  1  2  1  0
  2  3  1  0
  3  4  1  0
  4  5  1  0
  5  6  1  6
  5  7  1  0
  7  8  1  0
  7  9  1  0
  7 10  1  0
 10 11  2  0
 11 12  1  0
 12 13  2  0
 13 14  1  0
 14 10  1  0
M  CHG  1   6   1
M  END
>  <shape_align_shape_tanimoto>  (3) 
0.70143315519274618

>  <shape_align_color_tanimoto>  (3) 
0.19436290475309131

>  <metric>  (3) 
combo

>  <metric_score>  (3) 
0.448

>  <template_pid>  (3) 
1QXZ

>  <template_shape_score>  (3) 
0.701

>  <template_color_score>  (3) 
0.194

>  <template_combo_score>  (3) 
0.448

$$$$
