3KWA_shape_pose
     RDKit          3D

 14 13  0  0  0  0  0  0  0  0999 V2000
   -0.8991    7.6897   15.6531 N   0  0  0  0  0  0  0  0  0  0  0  0
   -1.7835    8.6160   15.0162 C   0  0  0  0  0  0  0  0  0  0  0  0
   -1.8630    8.4348   13.5349 C   0  0  0  0  0  0  0  0  0  0  0  0
   -2.3519    7.0740   13.1105 C   0  0  0  0  0  0  0  0  0  0  0  0
   -3.6779    6.8621   13.6446 N   0  0  0  0  0  0  0  0  0  0  0  0
   -4.2881    5.6383   13.2047 C   0  0  0  0  0  0  0  0  0  0  0  0
   -4.4506    4.6178   14.3066 C   0  0  0  0  0  0  0  0  0  0  0  0
   -3.1104    4.2770   14.8472 C   0  0  0  0  0  0  0  0  0  0  0  0
   -3.1297    3.2602   15.9531 C   0  0  0  0  0  0  0  0  0  0  0  0
   -3.6900    1.9965   15.5855 N   0  0  0  0  0  0  0  0  0  0  0  0
   -5.1138    1.8859   15.8552 C   0  0  0  0  0  0  0  0  0  0  0  0
   -5.4437    1.0440   17.0420 C   0  0  0  0  0  0  0  0  0  0  0  0
   -6.9617    0.9790   17.2565 C   0  0  0  0  0  0  0  0  0  0  0  0
   -7.5216    2.2963   17.4782 N   0  0  0  0  0  0  0  0  0  0  0  0
  1  2  1  0
  2  3  1  0
  3  4  1  0
  4  5  1  0
  5  6  1  0
  6  7  1  0
  7  8  1  0
  8  9  1  0
  9 10  1  0
 10 11  1  0
 11 12  1  0
 12 13  1  0
 13 14  1  0
M  CHG  4   1   1   5   1  10   1  14   1
M  END
>  <shape_align_shape_tanimoto>  (1) 
0.7418297995891181

>  <shape_align_color_tanimoto>  (1) 
0.046281392439531714

>  <metric>  (1) 
shape

>  <metric_score>  (1) 
0.742

>  <template_pid>  (1) 
3KWA

>  <template_shape_score>  (1) 
0.742

>  <template_color_score>  (1) 
0.046

>  <template_combo_score>  (1) 
0.394

$$$$
3KWA_color_pose
     RDKit          3D

 14 13  0  0  0  0  0  0  0  0999 V2000
   -6.7522    2.7839   17.9933 N   0  0  0  0  0  0  0  0  0  0  0  0
   -5.8126    1.6911   18.0534 C   0  0  0  0  0  0  0  0  0  0  0  0
   -5.7672    0.9335   16.7349 C   0  0  0  0  0  0  0  0  0  0  0  0
   -5.3438    1.8732   15.6231 C   0  0  0  0  0  0  0  0  0  0  0  0
   -4.0289    2.4272   15.8867 N   0  0  0  0  0  0  0  0  0  0  0  0
   -3.3751    2.7355   14.6236 C   0  0  0  0  0  0  0  0  0  0  0  0
   -2.2327    3.6642   14.7211 C   0  0  0  0  0  0  0  0  0  0  0  0
   -2.4087    5.0259   15.2362 C   0  0  0  0  0  0  0  0  0  0  0  0
   -3.2965    5.9730   14.4971 C   0  0  0  0  0  0  0  0  0  0  0  0
   -4.6608    5.6186   14.3775 N   0  0  0  0  0  0  0  0  0  0  0  0
   -5.0822    5.4412   12.9841 C   0  0  0  0  0  0  0  0  0  0  0  0
   -6.5094    4.9532   13.0206 C   0  0  0  0  0  0  0  0  0  0  0  0
   -7.0838    4.7236   11.6408 C   0  0  0  0  0  0  0  0  0  0  0  0
   -7.1013    5.9065   10.8193 N   0  0  0  0  0  0  0  0  0  0  0  0
  1  2  1  0
  2  3  1  0
  3  4  1  0
  4  5  1  0
  5  6  1  0
  6  7  1  0
  7  8  1  0
  8  9  1  0
  9 10  1  0
 10 11  1  0
 11 12  1  0
 12 13  1  0
 13 14  1  0
M  CHG  4   1   1   5   1  10   1  14   1
M  END
>  <shape_align_shape_tanimoto>  (2) 
0.50316846886654143

>  <shape_align_color_tanimoto>  (2) 
0.06944288767866752

>  <metric>  (2) 
color

>  <metric_score>  (2) 
0.069

>  <template_pid>  (2) 
3KWA

>  <template_shape_score>  (2) 
0.503

>  <template_color_score>  (2) 
0.069

>  <template_combo_score>  (2) 
0.286

$$$$
3KWA_combo_pose
     RDKit          3D

 14 13  0  0  0  0  0  0  0  0999 V2000
   -0.8991    7.6897   15.6531 N   0  0  0  0  0  0  0  0  0  0  0  0
   -1.7835    8.6160   15.0162 C   0  0  0  0  0  0  0  0  0  0  0  0
   -1.8630    8.4348   13.5349 C   0  0  0  0  0  0  0  0  0  0  0  0
   -2.3519    7.0740   13.1105 C   0  0  0  0  0  0  0  0  0  0  0  0
   -3.6779    6.8621   13.6446 N   0  0  0  0  0  0  0  0  0  0  0  0
   -4.2881    5.6383   13.2047 C   0  0  0  0  0  0  0  0  0  0  0  0
   -4.4506    4.6178   14.3066 C   0  0  0  0  0  0  0  0  0  0  0  0
   -3.1104    4.2770   14.8472 C   0  0  0  0  0  0  0  0  0  0  0  0
   -3.1297    3.2602   15.9531 C   0  0  0  0  0  0  0  0  0  0  0  0
   -3.6900    1.9965   15.5855 N   0  0  0  0  0  0  0  0  0  0  0  0
   -5.1138    1.8859   15.8552 C   0  0  0  0  0  0  0  0  0  0  0  0
   -5.4437    1.0440   17.0420 C   0  0  0  0  0  0  0  0  0  0  0  0
   -6.9617    0.9790   17.2565 C   0  0  0  0  0  0  0  0  0  0  0  0
   -7.5216    2.2963   17.4782 N   0  0  0  0  0  0  0  0  0  0  0  0
  1  2  1  0
  2  3  1  0
  3  4  1  0
  4  5  1  0
  5  6  1  0
  6  7  1  0
  7  8  1  0
  8  9  1  0
  9 10  1  0
 10 11  1  0
 11 12  1  0
 12 13  1  0
 13 14  1  0
M  CHG  4   1   1   5   1  10   1  14   1
M  END
>  <shape_align_shape_tanimoto>  (3) 
0.7418297995891181

>  <shape_align_color_tanimoto>  (3) 
0.046281392439531714

>  <metric>  (3) 
combo

>  <metric_score>  (3) 
0.394

>  <template_pid>  (3) 
3KWA

>  <template_shape_score>  (3) 
0.742

>  <template_color_score>  (3) 
0.046

>  <template_combo_score>  (3) 
0.394

$$$$
