5NP8_shape_pose
     RDKit          3D

 23 25  0  0  0  0  0  0  0  0999 V2000
    4.7200   39.8787   48.9310 C   0  0  0  0  0  0  0  0  0  0  0  0
    3.8291   40.8918   49.4983 C   0  0  0  0  0  0  0  0  0  0  0  0
    4.3044   41.8436   50.3619 N   0  0  0  0  0  0  0  0  0  0  0  0
    3.5073   42.7249   50.9700 C   0  0  0  0  0  0  0  0  0  0  0  0
    3.8275   43.7338   51.8565 C   0  0  0  0  0  0  0  0  0  0  0  0
    2.6250   44.3297   52.1690 C   0  0  0  0  0  0  0  0  0  0  0  0
    2.4040   45.4630   53.1008 C   0  0  0  0  0  0  0  0  0  0  0  0
    3.4963   46.0235   53.7204 C   0  0  0  0  0  0  0  0  0  0  0  0
    3.2754   47.0519   54.6025 C   0  0  0  0  0  0  0  0  0  0  0  0
    2.0065   47.4816   54.8358 C   0  0  0  0  0  0  0  0  0  0  0  0
    1.7810   48.9289   56.0789 Br  0  0  0  0  0  0  0  0  0  0  0  0
    0.8919   46.9367   54.2265 C   0  0  0  0  0  0  0  0  0  0  0  0
    1.1041   45.9087   53.3438 C   0  0  0  0  0  0  0  0  0  0  0  0
    1.6453   43.6896   51.4866 N   0  0  0  0  0  0  0  0  0  0  0  0
    2.1823   42.7080   50.7509 N   0  0  0  0  0  0  0  0  0  0  0  0
    1.6310   41.7989   49.9084 C   0  0  0  0  0  0  0  0  0  0  0  0
    0.1767   41.8597   49.7246 C   0  0  0  0  0  0  0  0  0  0  0  0
    2.4526   40.8662   49.2579 C   0  0  0  0  0  0  0  0  0  0  0  0
    1.8114   40.0159   48.2686 C   0  0  0  0  0  0  0  0  0  0  0  0
    1.4664   40.6381   46.9504 C   0  0  0  0  0  0  0  0  0  0  0  0
    2.4776   41.2648   46.1419 C   0  0  0  0  0  0  0  0  0  0  0  0
    3.6878   41.4615   46.3469 O   0  0  0  0  0  0  0  0  0  0  0  0
    2.0366   41.7594   44.8673 O   0  0  0  0  0  0  0  0  0  0  0  0
  1  2  1  0
  2  3  2  0
  3  4  1  0
  4  5  2  0
  5  6  1  0
  6  7  1  0
  7  8  2  0
  8  9  1  0
  9 10  2  0
 10 11  1  0
 10 12  1  0
 12 13  2  0
  6 14  2  0
 14 15  1  0
 15 16  1  0
 16 17  1  0
 16 18  2  0
 18 19  1  0
 19 20  1  0
 20 21  1  0
 21 22  2  0
 21 23  1  0
 18  2  1  0
 15  4  1  0
 13  7  1  0
M  CHG  1  23  -1
M  END
>  <shape_align_shape_tanimoto>  (1) 
0.52919865004898758

>  <shape_align_color_tanimoto>  (1) 
0.029856663551620137

>  <metric>  (1) 
shape

>  <metric_score>  (1) 
0.529

>  <template_pid>  (1) 
5NP8

>  <template_shape_score>  (1) 
0.529

>  <template_color_score>  (1) 
0.030

>  <template_combo_score>  (1) 
0.280

$$$$
5NP8_color_pose
     RDKit          3D

 23 25  0  0  0  0  0  0  0  0999 V2000
    3.8601   38.6718   48.7112 C   0  0  0  0  0  0  0  0  0  0  0  0
    3.1963   39.9285   49.0471 C   0  0  0  0  0  0  0  0  0  0  0  0
    3.6735   40.5943   50.1443 N   0  0  0  0  0  0  0  0  0  0  0  0
    3.1350   41.7475   50.5713 C   0  0  0  0  0  0  0  0  0  0  0  0
    3.4796   42.5461   51.6421 C   0  0  0  0  0  0  0  0  0  0  0  0
    2.5791   43.6020   51.5930 C   0  0  0  0  0  0  0  0  0  0  0  0
    2.5062   44.7404   52.5060 C   0  0  0  0  0  0  0  0  0  0  0  0
    1.5236   45.6780   52.2575 C   0  0  0  0  0  0  0  0  0  0  0  0
    1.4440   46.7704   53.1270 C   0  0  0  0  0  0  0  0  0  0  0  0
    2.3199   46.8930   54.1872 C   0  0  0  0  0  0  0  0  0  0  0  0
    2.1472   48.4116   55.3256 Br  0  0  0  0  0  0  0  0  0  0  0  0
    3.2882   45.9322   54.3998 C   0  0  0  0  0  0  0  0  0  0  0  0
    3.3929   44.8428   53.5604 C   0  0  0  0  0  0  0  0  0  0  0  0
    1.7742   43.3852   50.5342 N   0  0  0  0  0  0  0  0  0  0  0  0
    2.0932   42.2666   49.9007 N   0  0  0  0  0  0  0  0  0  0  0  0
    1.5573   41.6728   48.8024 C   0  0  0  0  0  0  0  0  0  0  0  0
    0.4205   42.3295   48.1664 C   0  0  0  0  0  0  0  0  0  0  0  0
    2.1269   40.4804   48.3731 C   0  0  0  0  0  0  0  0  0  0  0  0
    1.6018   39.8163   47.1795 C   0  0  0  0  0  0  0  0  0  0  0  0
    2.4872   40.1436   45.9992 C   0  0  0  0  0  0  0  0  0  0  0  0
    2.5296   41.6256   45.7280 C   0  0  0  0  0  0  0  0  0  0  0  0
    3.2402   42.3465   46.4698 O   0  0  0  0  0  0  0  0  0  0  0  0
    1.7970   42.1683   44.6801 O   0  0  0  0  0  0  0  0  0  0  0  0
  1  2  1  0
  2  3  2  0
  3  4  1  0
  4  5  2  0
  5  6  1  0
  6  7  1  0
  7  8  2  0
  8  9  1  0
  9 10  2  0
 10 11  1  0
 10 12  1  0
 12 13  2  0
  6 14  2  0
 14 15  1  0
 15 16  1  0
 16 17  1  0
 16 18  2  0
 18 19  1  0
 19 20  1  0
 20 21  1  0
 21 22  2  0
 21 23  1  0
 18  2  1  0
 15  4  1  0
 13  7  1  0
M  CHG  1  23  -1
M  END
>  <shape_align_shape_tanimoto>  (2) 
0.49937305398926074

>  <shape_align_color_tanimoto>  (2) 
0.073968656649540387

>  <metric>  (2) 
color

>  <metric_score>  (2) 
0.074

>  <template_pid>  (2) 
5NP8

>  <template_shape_score>  (2) 
0.499

>  <template_color_score>  (2) 
0.074

>  <template_combo_score>  (2) 
0.287

$$$$
5NP8_combo_pose
     RDKit          3D

 23 25  0  0  0  0  0  0  0  0999 V2000
    0.3551   47.8850   55.0054 C   0  0  0  0  0  0  0  0  0  0  0  0
    1.1952   46.8819   54.3330 C   0  0  0  0  0  0  0  0  0  0  0  0
    2.4650   47.2831   54.0153 N   0  0  0  0  0  0  0  0  0  0  0  0
    3.3352   46.4234   53.4644 C   0  0  0  0  0  0  0  0  0  0  0  0
    4.6499   46.6295   53.0671 C   0  0  0  0  0  0  0  0  0  0  0  0
    5.0498   45.4012   52.5637 C   0  0  0  0  0  0  0  0  0  0  0  0
    6.3858   45.1054   52.0033 C   0  0  0  0  0  0  0  0  0  0  0  0
    7.3510   46.0855   51.9550 C   0  0  0  0  0  0  0  0  0  0  0  0
    8.5870   45.7667   51.4206 C   0  0  0  0  0  0  0  0  0  0  0  0
    8.8921   44.5079   50.9349 C   0  0  0  0  0  0  0  0  0  0  0  0
   10.6111   44.0968   50.1977 Br  0  0  0  0  0  0  0  0  0  0  0  0
    7.8932   43.5364   50.9982 C   0  0  0  0  0  0  0  0  0  0  0  0
    6.6467   43.8365   51.5307 C   0  0  0  0  0  0  0  0  0  0  0  0
    4.0072   44.5250   52.6686 N   0  0  0  0  0  0  0  0  0  0  0  0
    2.9719   45.1529   53.2150 N   0  0  0  0  0  0  0  0  0  0  0  0
    1.6991   44.7213   53.5233 C   0  0  0  0  0  0  0  0  0  0  0  0
    1.4180   43.3143   53.1737 C   0  0  0  0  0  0  0  0  0  0  0  0
    0.7796   45.5836   54.0914 C   0  0  0  0  0  0  0  0  0  0  0  0
   -0.6071   45.1121   54.3116 C   0  0  0  0  0  0  0  0  0  0  0  0
   -1.3946   45.2539   53.0017 C   0  0  0  0  0  0  0  0  0  0  0  0
   -1.4288   46.6220   52.4662 C   0  0  0  0  0  0  0  0  0  0  0  0
   -0.3214   47.0446   51.9661 O   0  0  0  0  0  0  0  0  0  0  0  0
   -2.5692   47.4124   52.4893 O   0  0  0  0  0  0  0  0  0  0  0  0
  1  2  1  0
  2  3  2  0
  3  4  1  0
  4  5  2  0
  5  6  1  0
  6  7  1  0
  7  8  2  0
  8  9  1  0
  9 10  2  0
 10 11  1  0
 10 12  1  0
 12 13  2  0
  6 14  2  0
 14 15  1  0
 15 16  1  0
 16 17  1  0
 16 18  2  0
 18 19  1  0
 19 20  1  0
 20 21  1  0
 21 22  2  0
 21 23  1  0
 18  2  1  0
 15  4  1  0
 13  7  1  0
M  CHG  1  23  -1
M  END
>  <shape_align_shape_tanimoto>  (3) 
0.51112013949535251

>  <shape_align_color_tanimoto>  (3) 
0.073561833839139487

>  <metric>  (3) 
combo

>  <metric_score>  (3) 
0.292

>  <template_pid>  (3) 
5NP8

>  <template_shape_score>  (3) 
0.511

>  <template_color_score>  (3) 
0.074

>  <template_combo_score>  (3) 
0.292

$$$$
