5M6M_shape_pose
     RDKit          3D

 35 39  0  0  0  0  0  0  0  0999 V2000
   33.4839  -10.8516   15.9220 C   0  0  0  0  0  0  0  0  0  0  0  0
   32.6467   -9.6639   15.5084 C   0  0  2  0  0  0  0  0  0  0  0  0
   33.2747   -8.8635   14.3789 C   0  0  0  0  0  0  0  0  0  0  0  0
   33.3039   -7.4629   14.7707 N   0  0  2  0  0  0  0  0  0  0  0  0
   33.4572   -6.6174   13.6295 C   0  0  0  0  0  0  0  0  0  0  0  0
   34.7883   -6.6681   12.9949 C   0  0  0  0  0  0  0  0  0  0  0  0
   35.6259   -7.4740   13.5313 O   0  0  0  0  0  0  0  0  0  0  0  0
   35.1910   -5.9116   11.8718 N   0  0  0  0  0  0  0  0  0  0  0  0
   36.5262   -6.0315   11.2584 C   0  0  0  0  0  0  0  0  0  0  0  0
   36.7675   -4.6812   10.6684 C   0  0  0  0  0  0  0  0  0  0  0  0
   37.5022   -4.7652    9.3264 C   0  0  0  0  0  0  0  0  0  0  0  0
   37.4970   -3.7555   11.6095 C   0  0  0  0  0  0  0  0  0  0  0  0
   35.4036   -4.1780   10.3587 C   0  0  0  0  0  0  0  0  0  0  0  0
   35.0043   -3.1828    9.5390 N   0  0  0  0  0  0  0  0  0  0  0  0
   33.6781   -2.8933    9.4106 C   0  0  0  0  0  0  0  0  0  0  0  0
   32.7703   -3.6374   10.1330 C   0  0  0  0  0  0  0  0  0  0  0  0
   31.3066   -3.3339   10.0052 C   0  0  0  0  0  0  0  0  0  0  0  0
   30.6495   -4.1049    8.9411 C   0  0  0  0  0  0  0  0  0  0  0  0
   30.1004   -5.3391    9.2927 C   0  0  0  0  0  0  0  0  0  0  0  0
   29.4779   -6.1029    8.3557 C   0  0  0  0  0  0  0  0  0  0  0  0
   29.3735   -5.6889    7.0592 C   0  0  0  0  0  0  0  0  0  0  0  0
   29.9067   -4.4704    6.6751 C   0  0  0  0  0  0  0  0  0  0  0  0
   30.5437   -3.6857    7.6270 C   0  0  0  0  0  0  0  0  0  0  0  0
   33.1882   -4.6528   10.9681 C   0  0  0  0  0  0  0  0  0  0  0  0
   34.5262   -4.9438   11.0967 C   0  0  0  0  0  0  0  0  0  0  0  0
   34.1776   -7.3308   15.8603 C   0  0  1  0  0  0  0  0  0  0  0  0
   34.6161   -5.9717   16.2434 C   0  0  0  0  0  0  0  0  0  0  0  0
   35.5143   -6.0034   17.3848 N   0  0  0  0  0  0  0  0  0  0  0  0
   35.1505   -5.9273   18.8069 C   0  0  0  0  0  0  0  0  0  0  0  0
   36.3115   -5.1283   19.4162 C   0  0  0  0  0  0  0  0  0  0  0  0
   37.4820   -5.8238   18.7361 C   0  0  0  0  0  0  0  0  0  0  0  0
   36.9394   -6.1115   17.3999 C   0  0  0  0  0  0  0  0  0  0  0  0
   37.5936   -6.4214   16.3545 O   0  0  0  0  0  0  0  0  0  0  0  0
   33.4576   -7.9679   17.0423 C   0  0  0  0  0  0  0  0  0  0  0  0
   32.3918   -8.8424   16.6689 N   0  0  0  0  0  0  0  0  0  0  0  0
  2  1  1  1
  2  3  1  0
  3  4  1  0
  4  5  1  6
  5  6  1  0
  6  7  2  0
  6  8  1  0
  8  9  1  0
  9 10  1  0
 10 11  1  0
 10 12  1  0
 10 13  1  0
 13 14  2  0
 14 15  1  0
 15 16  2  0
 16 17  1  0
 17 18  1  0
 18 19  2  0
 19 20  1  0
 20 21  2  0
 21 22  1  0
 22 23  2  0
 16 24  1  0
 24 25  2  0
  4 26  1  0
 26 27  1  1
 27 28  1  0
 28 29  1  0
 29 30  1  0
 30 31  1  0
 31 32  1  0
 32 33  2  0
 26 34  1  0
 34 35  1  0
 35  2  1  0
 25  8  1  0
 32 28  1  0
 25 13  1  0
 23 18  1  0
M  CHG  2   4   1  35   1
M  END
>  <shape_align_shape_tanimoto>  (1) 
0.67180629020089044

>  <shape_align_color_tanimoto>  (1) 
0.052673526385782862

>  <metric>  (1) 
shape

>  <metric_score>  (1) 
0.672

>  <template_pid>  (1) 
5M6M

>  <template_shape_score>  (1) 
0.672

>  <template_color_score>  (1) 
0.053

>  <template_combo_score>  (1) 
0.362

$$$$
5M6M_color_pose
     RDKit          3D

 35 39  0  0  0  0  0  0  0  0999 V2000
   31.0523   -3.9066    5.3134 C   0  0  0  0  0  0  0  0  0  0  0  0
   30.6223   -3.4999    6.6846 C   0  0  2  0  0  0  0  0  0  0  0  0
   30.8521   -4.6401    7.6461 C   0  0  0  0  0  0  0  0  0  0  0  0
   30.5999   -4.2436    9.0160 N   0  0  2  0  0  0  0  0  0  0  0  0
   30.7488   -5.4018    9.8370 C   0  0  0  0  0  0  0  0  0  0  0  0
   31.9909   -5.6656   10.5239 C   0  0  0  0  0  0  0  0  0  0  0  0
   31.9685   -6.7542   11.2462 O   0  0  0  0  0  0  0  0  0  0  0  0
   33.2074   -4.9601   10.5515 N   0  0  0  0  0  0  0  0  0  0  0  0
   33.6636   -3.7946    9.8276 C   0  0  0  0  0  0  0  0  0  0  0  0
   35.1708   -3.7175    9.9821 C   0  0  0  0  0  0  0  0  0  0  0  0
   35.6031   -2.3000   10.3072 C   0  0  0  0  0  0  0  0  0  0  0  0
   35.8041   -4.1513    8.6755 C   0  0  0  0  0  0  0  0  0  0  0  0
   35.4390   -4.6496   11.0739 C   0  0  0  0  0  0  0  0  0  0  0  0
   36.6182   -4.8438   11.7342 N   0  0  0  0  0  0  0  0  0  0  0  0
   36.7667   -5.7248   12.7323 C   0  0  0  0  0  0  0  0  0  0  0  0
   35.6598   -6.4599   13.0931 C   0  0  0  0  0  0  0  0  0  0  0  0
   35.8059   -7.4339   14.1860 C   0  0  0  0  0  0  0  0  0  0  0  0
   35.5627   -6.8997   15.5297 C   0  0  0  0  0  0  0  0  0  0  0  0
   36.6567   -6.3838   16.2274 C   0  0  0  0  0  0  0  0  0  0  0  0
   36.4497   -5.8773   17.4908 C   0  0  0  0  0  0  0  0  0  0  0  0
   35.2189   -5.8494   18.1109 C   0  0  0  0  0  0  0  0  0  0  0  0
   34.1372   -6.3636   17.4111 C   0  0  0  0  0  0  0  0  0  0  0  0
   34.3296   -6.8741   16.1451 C   0  0  0  0  0  0  0  0  0  0  0  0
   34.4466   -6.2772   12.4320 C   0  0  0  0  0  0  0  0  0  0  0  0
   34.3044   -5.3624   11.3994 C   0  0  0  0  0  0  0  0  0  0  0  0
   29.2700   -3.6559    9.1487 C   0  0  1  0  0  0  0  0  0  0  0  0
   29.3203   -2.6538   10.2988 C   0  0  0  0  0  0  0  0  0  0  0  0
   28.0478   -2.0060   10.5281 N   0  0  0  0  0  0  0  0  0  0  0  0
   27.5195   -0.7778    9.9522 C   0  0  0  0  0  0  0  0  0  0  0  0
   26.6026   -0.1917   11.0036 C   0  0  0  0  0  0  0  0  0  0  0  0
   26.2539   -1.3329   11.9105 C   0  0  0  0  0  0  0  0  0  0  0  0
   27.0417   -2.4992   11.4149 C   0  0  0  0  0  0  0  0  0  0  0  0
   26.8548   -3.7007   11.7213 O   0  0  0  0  0  0  0  0  0  0  0  0
   28.7622   -2.9372    7.9775 C   0  0  0  0  0  0  0  0  0  0  0  0
   29.1663   -3.3396    6.6819 N   0  0  0  0  0  0  0  0  0  0  0  0
  2  1  1  6
  2  3  1  0
  3  4  1  0
  4  5  1  1
  5  6  1  0
  6  7  2  0
  6  8  1  0
  8  9  1  0
  9 10  1  0
 10 11  1  0
 10 12  1  0
 10 13  1  0
 13 14  2  0
 14 15  1  0
 15 16  2  0
 16 17  1  0
 17 18  1  0
 18 19  2  0
 19 20  1  0
 20 21  2  0
 21 22  1  0
 22 23  2  0
 16 24  1  0
 24 25  2  0
  4 26  1  0
 26 27  1  1
 27 28  1  0
 28 29  1  0
 29 30  1  0
 30 31  1  0
 31 32  1  0
 32 33  2  0
 26 34  1  0
 34 35  1  0
 35  2  1  0
 25  8  1  0
 32 28  1  0
 25 13  1  0
 23 18  1  0
M  CHG  2   4   1  35   1
M  END
>  <shape_align_shape_tanimoto>  (2) 
0.44456850776596368

>  <shape_align_color_tanimoto>  (2) 
0.14792898528996651

>  <metric>  (2) 
color

>  <metric_score>  (2) 
0.148

>  <template_pid>  (2) 
5M6M

>  <template_shape_score>  (2) 
0.445

>  <template_color_score>  (2) 
0.148

>  <template_combo_score>  (2) 
0.296

$$$$
5M6M_combo_pose
     RDKit          3D

 35 39  0  0  0  0  0  0  0  0999 V2000
   33.4839  -10.8516   15.9220 C   0  0  0  0  0  0  0  0  0  0  0  0
   32.6467   -9.6639   15.5084 C   0  0  2  0  0  0  0  0  0  0  0  0
   33.2747   -8.8635   14.3789 C   0  0  0  0  0  0  0  0  0  0  0  0
   33.3039   -7.4629   14.7707 N   0  0  2  0  0  0  0  0  0  0  0  0
   33.4572   -6.6174   13.6295 C   0  0  0  0  0  0  0  0  0  0  0  0
   34.7883   -6.6681   12.9949 C   0  0  0  0  0  0  0  0  0  0  0  0
   35.6259   -7.4740   13.5313 O   0  0  0  0  0  0  0  0  0  0  0  0
   35.1910   -5.9116   11.8718 N   0  0  0  0  0  0  0  0  0  0  0  0
   36.5262   -6.0315   11.2584 C   0  0  0  0  0  0  0  0  0  0  0  0
   36.7675   -4.6812   10.6684 C   0  0  0  0  0  0  0  0  0  0  0  0
   37.5022   -4.7652    9.3264 C   0  0  0  0  0  0  0  0  0  0  0  0
   37.4970   -3.7555   11.6095 C   0  0  0  0  0  0  0  0  0  0  0  0
   35.4036   -4.1780   10.3587 C   0  0  0  0  0  0  0  0  0  0  0  0
   35.0043   -3.1828    9.5390 N   0  0  0  0  0  0  0  0  0  0  0  0
   33.6781   -2.8933    9.4106 C   0  0  0  0  0  0  0  0  0  0  0  0
   32.7703   -3.6374   10.1330 C   0  0  0  0  0  0  0  0  0  0  0  0
   31.3066   -3.3339   10.0052 C   0  0  0  0  0  0  0  0  0  0  0  0
   30.6495   -4.1049    8.9411 C   0  0  0  0  0  0  0  0  0  0  0  0
   30.1004   -5.3391    9.2927 C   0  0  0  0  0  0  0  0  0  0  0  0
   29.4779   -6.1029    8.3557 C   0  0  0  0  0  0  0  0  0  0  0  0
   29.3735   -5.6889    7.0592 C   0  0  0  0  0  0  0  0  0  0  0  0
   29.9067   -4.4704    6.6751 C   0  0  0  0  0  0  0  0  0  0  0  0
   30.5437   -3.6857    7.6270 C   0  0  0  0  0  0  0  0  0  0  0  0
   33.1882   -4.6528   10.9681 C   0  0  0  0  0  0  0  0  0  0  0  0
   34.5262   -4.9438   11.0967 C   0  0  0  0  0  0  0  0  0  0  0  0
   34.1776   -7.3308   15.8603 C   0  0  1  0  0  0  0  0  0  0  0  0
   34.6161   -5.9717   16.2434 C   0  0  0  0  0  0  0  0  0  0  0  0
   35.5143   -6.0034   17.3848 N   0  0  0  0  0  0  0  0  0  0  0  0
   35.1505   -5.9273   18.8069 C   0  0  0  0  0  0  0  0  0  0  0  0
   36.3115   -5.1283   19.4162 C   0  0  0  0  0  0  0  0  0  0  0  0
   37.4820   -5.8238   18.7361 C   0  0  0  0  0  0  0  0  0  0  0  0
   36.9394   -6.1115   17.3999 C   0  0  0  0  0  0  0  0  0  0  0  0
   37.5936   -6.4214   16.3545 O   0  0  0  0  0  0  0  0  0  0  0  0
   33.4576   -7.9679   17.0423 C   0  0  0  0  0  0  0  0  0  0  0  0
   32.3918   -8.8424   16.6689 N   0  0  0  0  0  0  0  0  0  0  0  0
  2  1  1  1
  2  3  1  0
  3  4  1  0
  4  5  1  6
  5  6  1  0
  6  7  2  0
  6  8  1  0
  8  9  1  0
  9 10  1  0
 10 11  1  0
 10 12  1  0
 10 13  1  0
 13 14  2  0
 14 15  1  0
 15 16  2  0
 16 17  1  0
 17 18  1  0
 18 19  2  0
 19 20  1  0
 20 21  2  0
 21 22  1  0
 22 23  2  0
 16 24  1  0
 24 25  2  0
  4 26  1  0
 26 27  1  1
 27 28  1  0
 28 29  1  0
 29 30  1  0
 30 31  1  0
 31 32  1  0
 32 33  2  0
 26 34  1  0
 34 35  1  0
 35  2  1  0
 25  8  1  0
 32 28  1  0
 25 13  1  0
 23 18  1  0
M  CHG  2   4   1  35   1
M  END
>  <shape_align_shape_tanimoto>  (3) 
0.67180629020089044

>  <shape_align_color_tanimoto>  (3) 
0.052673526385782862

>  <metric>  (3) 
combo

>  <metric_score>  (3) 
0.362

>  <template_pid>  (3) 
5M6M

>  <template_shape_score>  (3) 
0.672

>  <template_color_score>  (3) 
0.053

>  <template_combo_score>  (3) 
0.362

$$$$
