5ZMQ_shape_pose
     RDKit          3D

 39 39  0  0  0  0  0  0  0  0999 V2000
    5.7131  -15.8497    4.7370 N   0  0  0  0  0  0  0  0  0  0  0  0
    6.8597  -16.1600    5.5068 C   0  0  0  0  0  0  0  0  0  0  0  0
    6.9804  -17.3689    5.9958 N   0  0  0  0  0  0  0  0  0  0  0  0
    7.8420  -15.1861    5.7265 N   0  0  0  0  0  0  0  0  0  0  0  0
    9.0628  -15.4116    6.4979 C   0  0  0  0  0  0  0  0  0  0  0  0
    9.9044  -14.1470    6.5343 C   0  0  0  0  0  0  0  0  0  0  0  0
   10.2740  -13.7456    5.1388 C   0  0  0  0  0  0  0  0  0  0  0  0
   11.1046  -12.4769    5.1157 C   0  0  1  0  0  0  0  0  0  0  0  0
   10.4029  -11.3682    5.7057 N   0  0  0  0  0  0  0  0  0  0  0  0
    9.8532  -10.3252    4.9117 C   0  0  0  0  0  0  0  0  0  0  0  0
    9.9714  -10.3606    3.6862 O   0  0  0  0  0  0  0  0  0  0  0  0
    9.1489   -9.2332    5.6823 C   0  0  1  0  0  0  0  0  0  0  0  0
   10.1090   -8.6056    6.6498 C   0  0  0  0  0  0  0  0  0  0  0  0
    9.6134   -7.5137    7.5161 C   0  0  0  0  0  0  0  0  0  0  0  0
    9.1400   -6.2657    6.8864 C   0  0  0  0  0  0  0  0  0  0  0  0
    8.7030   -5.2974    8.0153 C   0  0  0  0  0  0  0  0  0  0  0  0
    8.2337   -4.0641    7.4102 N   0  0  0  0  0  0  0  0  0  0  0  0
    8.5286   -8.2589    4.8501 N   0  0  0  0  0  0  0  0  0  0  0  0
    7.1143   -8.2871    4.7232 C   0  0  0  0  0  0  0  0  0  0  0  0
    6.5456   -9.2239    5.3902 O   0  0  0  0  0  0  0  0  0  0  0  0
    6.2377   -7.4138    3.9725 C   0  0  1  0  0  0  0  0  0  0  0  0
    6.0321   -7.4489    2.5317 C   0  0  0  0  0  0  0  0  0  0  0  0
    7.0753   -7.2423    1.5213 C   0  0  0  0  0  0  0  0  0  0  0  0
    8.1616   -8.2305    1.3971 C   0  0  0  0  0  0  0  0  0  0  0  0
    9.1370   -7.8488    0.2718 C   0  0  0  0  0  0  0  0  0  0  0  0
    9.7552   -6.5793    0.4783 N   0  0  0  0  0  0  0  0  0  0  0  0
    4.8700   -7.6530    4.6170 N   0  0  0  0  0  0  0  0  0  0  0  0
    4.2079   -8.8692    4.4374 C   0  0  0  0  0  0  0  0  0  0  0  0
    4.6005   -9.8538    3.7793 O   0  0  0  0  0  0  0  0  0  0  0  0
    2.8663   -9.0243    5.1097 C   0  0  0  0  0  0  0  0  0  0  0  0
    2.3915  -10.3996    4.7630 C   0  0  0  0  0  0  0  0  0  0  0  0
    2.7607  -11.4749    5.5759 C   0  0  0  0  0  0  0  0  0  0  0  0
    2.3672  -12.7626    5.3294 C   0  0  0  0  0  0  0  0  0  0  0  0
    1.5710  -12.9853    4.2246 C   0  0  0  0  0  0  0  0  0  0  0  0
    1.1875  -11.9386    3.3986 C   0  0  0  0  0  0  0  0  0  0  0  0
    1.5940  -10.6384    3.6607 C   0  0  0  0  0  0  0  0  0  0  0  0
   12.4414  -12.6610    5.7134 C   0  0  0  0  0  0  0  0  0  0  0  0
   13.2979  -13.3292    5.0758 O   0  0  0  0  0  0  0  0  0  0  0  0
   12.7330  -12.0931    6.9683 O   0  0  0  0  0  0  0  0  0  0  0  0
  1  2  1  0
  2  3  2  0
  2  4  1  0
  4  5  1  0
  5  6  1  0
  6  7  1  0
  8  7  1  1
  8  9  1  0
  9 10  1  0
 10 11  2  0
 10 12  1  0
 12 13  1  1
 13 14  1  0
 14 15  1  0
 15 16  1  0
 16 17  1  0
 12 18  1  0
 18 19  1  0
 19 20  2  0
 19 21  1  0
 21 22  1  6
 22 23  1  0
 23 24  1  0
 24 25  1  0
 25 26  1  0
 21 27  1  0
 27 28  1  0
 28 29  2  0
 28 30  1  0
 30 31  1  0
 31 32  2  0
 32 33  1  0
 33 34  2  0
 34 35  1  0
 35 36  2  0
  8 37  1  0
 37 38  2  0
 37 39  1  0
 36 31  1  0
M  CHG  4   3   1  17   1  26   1  39  -1
M  END
>  <shape_align_shape_tanimoto>  (1) 
0.49601872192056762

>  <shape_align_color_tanimoto>  (1) 
0.015667886040555069

>  <metric>  (1) 
shape

>  <metric_score>  (1) 
0.496

>  <template_pid>  (1) 
5ZMQ

>  <template_shape_score>  (1) 
0.496

>  <template_color_score>  (1) 
0.016

>  <template_combo_score>  (1) 
0.256

$$$$
5ZMQ_color_pose
     RDKit          3D

 39 39  0  0  0  0  0  0  0  0999 V2000
    5.1428  -18.0834    9.6723 N   0  0  0  0  0  0  0  0  0  0  0  0
    6.1932  -17.0962    9.4852 C   0  0  0  0  0  0  0  0  0  0  0  0
    5.7923  -15.9317    9.1845 N   0  0  0  0  0  0  0  0  0  0  0  0
    7.5165  -17.5314    9.6325 N   0  0  0  0  0  0  0  0  0  0  0  0
    8.7160  -16.7920    9.4748 C   0  0  0  0  0  0  0  0  0  0  0  0
    9.1993  -16.5069    8.0855 C   0  0  0  0  0  0  0  0  0  0  0  0
    8.3320  -15.7272    7.1792 C   0  0  0  0  0  0  0  0  0  0  0  0
    8.8805  -15.4603    5.8010 C   0  0  1  0  0  0  0  0  0  0  0  0
   10.1227  -14.7333    5.9275 N   0  0  0  0  0  0  0  0  0  0  0  0
   10.1964  -13.3992    5.5647 C   0  0  0  0  0  0  0  0  0  0  0  0
    9.0796  -12.8781    5.1369 O   0  0  0  0  0  0  0  0  0  0  0  0
   11.3170  -12.4441    5.5692 C   0  0  1  0  0  0  0  0  0  0  0  0
   12.4912  -12.8254    4.7598 C   0  0  0  0  0  0  0  0  0  0  0  0
   13.2481  -14.0042    5.1937 C   0  0  0  0  0  0  0  0  0  0  0  0
   14.0434  -13.9679    6.4247 C   0  0  0  0  0  0  0  0  0  0  0  0
   13.5545  -13.6736    7.7634 C   0  0  0  0  0  0  0  0  0  0  0  0
   12.5442  -14.5226    8.3376 N   0  0  0  0  0  0  0  0  0  0  0  0
   10.8349  -11.1032    5.2231 N   0  0  0  0  0  0  0  0  0  0  0  0
   11.0559   -9.9797    6.1236 C   0  0  0  0  0  0  0  0  0  0  0  0
   11.6771  -10.2658    7.1571 O   0  0  0  0  0  0  0  0  0  0  0  0
   10.5294   -8.6982    5.7010 C   0  0  1  0  0  0  0  0  0  0  0  0
   11.3926   -7.5592    5.3302 C   0  0  0  0  0  0  0  0  0  0  0  0
   12.3505   -6.9304    6.2147 C   0  0  0  0  0  0  0  0  0  0  0  0
   13.5479   -7.6659    6.6228 C   0  0  0  0  0  0  0  0  0  0  0  0
   14.5288   -8.0728    5.5798 C   0  0  0  0  0  0  0  0  0  0  0  0
   14.1407   -8.9180    4.5267 N   0  0  0  0  0  0  0  0  0  0  0  0
    9.6380   -8.8770    4.5004 N   0  0  0  0  0  0  0  0  0  0  0  0
    8.2437   -8.6907    4.7092 C   0  0  0  0  0  0  0  0  0  0  0  0
    7.7480   -8.3957    5.8368 O   0  0  0  0  0  0  0  0  0  0  0  0
    7.2908   -8.8422    3.5646 C   0  0  0  0  0  0  0  0  0  0  0  0
    5.9296   -8.6019    4.1393 C   0  0  0  0  0  0  0  0  0  0  0  0
    5.2113   -9.7296    4.4867 C   0  0  0  0  0  0  0  0  0  0  0  0
    3.9575   -9.6112    5.0306 C   0  0  0  0  0  0  0  0  0  0  0  0
    3.4081   -8.3667    5.2332 C   0  0  0  0  0  0  0  0  0  0  0  0
    4.1441   -7.2490    4.8778 C   0  0  0  0  0  0  0  0  0  0  0  0
    5.4138   -7.3395    4.3262 C   0  0  0  0  0  0  0  0  0  0  0  0
    9.0973  -16.6598    4.9862 C   0  0  0  0  0  0  0  0  0  0  0  0
    9.2367  -16.4704    3.7289 O   0  0  0  0  0  0  0  0  0  0  0  0
    9.1671  -17.9521    5.4180 O   0  0  0  0  0  0  0  0  0  0  0  0
  1  2  1  0
  2  3  2  0
  2  4  1  0
  4  5  1  0
  5  6  1  0
  6  7  1  0
  8  7  1  1
  8  9  1  0
  9 10  1  0
 10 11  2  0
 10 12  1  0
 12 13  1  6
 13 14  1  0
 14 15  1  0
 15 16  1  0
 16 17  1  0
 12 18  1  0
 18 19  1  0
 19 20  2  0
 19 21  1  0
 21 22  1  6
 22 23  1  0
 23 24  1  0
 24 25  1  0
 25 26  1  0
 21 27  1  0
 27 28  1  0
 28 29  2  0
 28 30  1  0
 30 31  1  0
 31 32  2  0
 32 33  1  0
 33 34  2  0
 34 35  1  0
 35 36  2  0
  8 37  1  0
 37 38  2  0
 37 39  1  0
 36 31  1  0
M  CHG  4   3   1  17   1  26   1  39  -1
M  END
>  <shape_align_shape_tanimoto>  (2) 
0.44497224652595968

>  <shape_align_color_tanimoto>  (2) 
0.066518414571705153

>  <metric>  (2) 
color

>  <metric_score>  (2) 
0.067

>  <template_pid>  (2) 
5ZMQ

>  <template_shape_score>  (2) 
0.445

>  <template_color_score>  (2) 
0.067

>  <template_combo_score>  (2) 
0.256

$$$$
5ZMQ_combo_pose
     RDKit          3D

 39 39  0  0  0  0  0  0  0  0999 V2000
   14.7968  -13.6588    9.2697 N   0  0  0  0  0  0  0  0  0  0  0  0
   14.0223  -14.7456    8.7315 C   0  0  0  0  0  0  0  0  0  0  0  0
   14.4068  -15.9707    8.8680 N   0  0  0  0  0  0  0  0  0  0  0  0
   12.7953  -14.4875    8.0212 N   0  0  0  0  0  0  0  0  0  0  0  0
   12.0851  -15.6007    7.5139 C   0  0  0  0  0  0  0  0  0  0  0  0
   10.8954  -15.2028    6.7123 C   0  0  0  0  0  0  0  0  0  0  0  0
   11.0792  -14.4891    5.4542 C   0  0  0  0  0  0  0  0  0  0  0  0
   11.7079  -13.1717    5.3004 C   0  0  1  0  0  0  0  0  0  0  0  0
   11.1328  -12.0695    5.9935 N   0  0  0  0  0  0  0  0  0  0  0  0
   10.4224  -11.0261    5.2765 C   0  0  0  0  0  0  0  0  0  0  0  0
   10.2887  -11.0468    4.0355 O   0  0  0  0  0  0  0  0  0  0  0  0
    9.8256   -9.8787    6.0608 C   0  0  1  0  0  0  0  0  0  0  0  0
   10.9725   -9.1118    6.6502 C   0  0  0  0  0  0  0  0  0  0  0  0
   10.5717   -7.9232    7.4761 C   0  0  0  0  0  0  0  0  0  0  0  0
    9.7122   -8.2788    8.6494 C   0  0  0  0  0  0  0  0  0  0  0  0
    9.3295   -7.0562    9.4680 C   0  0  0  0  0  0  0  0  0  0  0  0
   10.4791   -6.3686    9.9950 N   0  0  0  0  0  0  0  0  0  0  0  0
    9.1810   -9.0120    5.1006 N   0  0  0  0  0  0  0  0  0  0  0  0
    7.7512   -8.8906    5.1221 C   0  0  0  0  0  0  0  0  0  0  0  0
    7.1545   -9.5598    5.9726 O   0  0  0  0  0  0  0  0  0  0  0  0
    7.1269   -7.9744    4.1258 C   0  0  1  0  0  0  0  0  0  0  0  0
    7.7532   -8.0453    2.7601 C   0  0  0  0  0  0  0  0  0  0  0  0
    7.0111   -7.0572    1.8600 C   0  0  0  0  0  0  0  0  0  0  0  0
    7.5731   -7.0769    0.4634 C   0  0  0  0  0  0  0  0  0  0  0  0
    9.0203   -6.7145    0.4226 C   0  0  0  0  0  0  0  0  0  0  0  0
    9.2390   -5.3975    0.9595 N   0  0  0  0  0  0  0  0  0  0  0  0
    5.7052   -7.9338    4.1197 N   0  0  0  0  0  0  0  0  0  0  0  0
    4.7853   -8.9479    4.4391 C   0  0  0  0  0  0  0  0  0  0  0  0
    5.0469  -10.1138    4.7798 O   0  0  0  0  0  0  0  0  0  0  0  0
    3.3055   -8.6212    4.3733 C   0  0  0  0  0  0  0  0  0  0  0  0
    2.5634   -9.8741    4.6814 C   0  0  0  0  0  0  0  0  0  0  0  0
    2.1290  -10.6456    3.5942 C   0  0  0  0  0  0  0  0  0  0  0  0
    1.4440  -11.8272    3.7673 C   0  0  0  0  0  0  0  0  0  0  0  0
    1.1779  -12.2640    5.0633 C   0  0  0  0  0  0  0  0  0  0  0  0
    1.6081  -11.4998    6.1457 C   0  0  0  0  0  0  0  0  0  0  0  0
    2.3004  -10.3053    5.9626 C   0  0  0  0  0  0  0  0  0  0  0  0
   13.1744  -13.1564    5.2079 C   0  0  0  0  0  0  0  0  0  0  0  0
   13.6922  -13.8101    4.2532 O   0  0  0  0  0  0  0  0  0  0  0  0
   14.0480  -12.5022    6.0475 O   0  0  0  0  0  0  0  0  0  0  0  0
  1  2  1  0
  2  3  2  0
  2  4  1  0
  4  5  1  0
  5  6  1  0
  6  7  1  0
  8  7  1  1
  8  9  1  0
  9 10  1  0
 10 11  2  0
 10 12  1  0
 12 13  1  6
 13 14  1  0
 14 15  1  0
 15 16  1  0
 16 17  1  0
 12 18  1  0
 18 19  1  0
 19 20  2  0
 19 21  1  0
 21 22  1  6
 22 23  1  0
 23 24  1  0
 24 25  1  0
 25 26  1  0
 21 27  1  0
 27 28  1  0
 28 29  2  0
 28 30  1  0
 30 31  1  0
 31 32  2  0
 32 33  1  0
 33 34  2  0
 34 35  1  0
 35 36  2  0
  8 37  1  0
 37 38  2  0
 37 39  1  0
 36 31  1  0
M  CHG  4   3   1  17   1  26   1  39  -1
M  END
>  <shape_align_shape_tanimoto>  (3) 
0.48849135856783055

>  <shape_align_color_tanimoto>  (3) 
0.063658020356839179

>  <metric>  (3) 
combo

>  <metric_score>  (3) 
0.276

>  <template_pid>  (3) 
5ZMQ

>  <template_shape_score>  (3) 
0.488

>  <template_color_score>  (3) 
0.064

>  <template_combo_score>  (3) 
0.276

$$$$
