4UP5_shape_pose
     RDKit          3D

 12 13  0  0  0  0  0  0  0  0999 V2000
   15.6448   -2.3701  -38.6414 C   0  0  0  0  0  0  0  0  0  0  0  0
   14.9046   -2.4600  -37.4696 O   0  0  0  0  0  0  0  0  0  0  0  0
   14.5207   -1.4250  -36.6710 C   0  0  0  0  0  0  0  0  0  0  0  0
   13.7844   -1.5571  -35.5129 C   0  0  0  0  0  0  0  0  0  0  0  0
   13.4030   -0.5078  -34.7158 C   0  0  0  0  0  0  0  0  0  0  0  0
   13.7478    0.7870  -35.0405 C   0  0  0  0  0  0  0  0  0  0  0  0
   13.5191    1.9417  -34.4696 N   0  0  0  0  0  0  0  0  0  0  0  0
   13.7955    3.0147  -34.7238 C   0  0  0  0  0  0  0  0  0  0  0  0
   13.6719    4.3628  -34.2875 N   0  0  0  0  0  0  0  0  0  0  0  0
   14.7790    2.7117  -36.3552 S   0  0  0  0  0  0  0  0  0  0  0  0
   14.5033    0.9297  -36.2274 C   0  0  0  0  0  0  0  0  0  0  0  0
   14.8790   -0.1307  -37.0173 C   0  0  0  0  0  0  0  0  0  0  0  0
  1  2  1  0
  2  3  1  0
  3  4  2  0
  4  5  1  0
  5  6  2  0
  6  7  1  0
  7  8  2  0
  8  9  1  0
  8 10  1  0
 10 11  1  0
 11 12  2  0
 12  3  1  0
 11  6  1  0
M  END
>  <shape_align_shape_tanimoto>  (1) 
0.37417077900522799

>  <shape_align_color_tanimoto>  (1) 
0.018941295970706019

>  <metric>  (1) 
shape

>  <metric_score>  (1) 
0.374

>  <template_pid>  (1) 
4UP5

>  <template_shape_score>  (1) 
0.374

>  <template_color_score>  (1) 
0.019

>  <template_combo_score>  (1) 
0.197

$$$$
4UP5_color_pose
     RDKit          3D

 12 13  0  0  0  0  0  0  0  0999 V2000
   11.2371   -0.2527  -33.3489 C   0  0  0  0  0  0  0  0  0  0  0  0
   12.1446   -0.9798  -34.1317 O   0  0  0  0  0  0  0  0  0  0  0  0
   13.1808   -0.4445  -34.8503 C   0  0  0  0  0  0  0  0  0  0  0  0
   14.0604   -1.1641  -35.6110 C   0  0  0  0  0  0  0  0  0  0  0  0
   15.1007   -0.6354  -36.3335 C   0  0  0  0  0  0  0  0  0  0  0  0
   15.3066    0.7530  -36.3118 C   0  0  0  0  0  0  0  0  0  0  0  0
   16.2324    1.4680  -36.9234 N   0  0  0  0  0  0  0  0  0  0  0  0
   16.4289    2.5966  -36.9279 C   0  0  0  0  0  0  0  0  0  0  0  0
   17.2844    3.5998  -37.4491 N   0  0  0  0  0  0  0  0  0  0  0  0
   15.0001    3.1629  -35.7696 S   0  0  0  0  0  0  0  0  0  0  0  0
   14.4459    1.4780  -35.5648 C   0  0  0  0  0  0  0  0  0  0  0  0
   13.3850    0.9421  -34.8275 C   0  0  0  0  0  0  0  0  0  0  0  0
  1  2  1  0
  2  3  1  0
  3  4  2  0
  4  5  1  0
  5  6  2  0
  6  7  1  0
  7  8  2  0
  8  9  1  0
  8 10  1  0
 10 11  1  0
 11 12  2  0
 12  3  1  0
 11  6  1  0
M  END
>  <shape_align_shape_tanimoto>  (2) 
0.3696745069533674

>  <shape_align_color_tanimoto>  (2) 
0.07501223833831841

>  <metric>  (2) 
color

>  <metric_score>  (2) 
0.075

>  <template_pid>  (2) 
4UP5

>  <template_shape_score>  (2) 
0.370

>  <template_color_score>  (2) 
0.075

>  <template_combo_score>  (2) 
0.222

$$$$
4UP5_combo_pose
     RDKit          3D

 12 13  0  0  0  0  0  0  0  0999 V2000
   11.2371   -0.2527  -33.3489 C   0  0  0  0  0  0  0  0  0  0  0  0
   12.1446   -0.9798  -34.1317 O   0  0  0  0  0  0  0  0  0  0  0  0
   13.1808   -0.4445  -34.8503 C   0  0  0  0  0  0  0  0  0  0  0  0
   14.0604   -1.1641  -35.6110 C   0  0  0  0  0  0  0  0  0  0  0  0
   15.1007   -0.6354  -36.3335 C   0  0  0  0  0  0  0  0  0  0  0  0
   15.3066    0.7530  -36.3118 C   0  0  0  0  0  0  0  0  0  0  0  0
   16.2324    1.4680  -36.9234 N   0  0  0  0  0  0  0  0  0  0  0  0
   16.4289    2.5966  -36.9279 C   0  0  0  0  0  0  0  0  0  0  0  0
   17.2844    3.5998  -37.4491 N   0  0  0  0  0  0  0  0  0  0  0  0
   15.0001    3.1629  -35.7696 S   0  0  0  0  0  0  0  0  0  0  0  0
   14.4459    1.4780  -35.5648 C   0  0  0  0  0  0  0  0  0  0  0  0
   13.3850    0.9421  -34.8275 C   0  0  0  0  0  0  0  0  0  0  0  0
  1  2  1  0
  2  3  1  0
  3  4  2  0
  4  5  1  0
  5  6  2  0
  6  7  1  0
  7  8  2  0
  8  9  1  0
  8 10  1  0
 10 11  1  0
 11 12  2  0
 12  3  1  0
 11  6  1  0
M  END
>  <shape_align_shape_tanimoto>  (3) 
0.3696745069533674

>  <shape_align_color_tanimoto>  (3) 
0.07501223833831841

>  <metric>  (3) 
combo

>  <metric_score>  (3) 
0.222

>  <template_pid>  (3) 
4UP5

>  <template_shape_score>  (3) 
0.370

>  <template_color_score>  (3) 
0.075

>  <template_combo_score>  (3) 
0.222

$$$$
