2LTW_shape_pose
     RDKit          3D

112118  0  0  0  0  0  0  0  0999 V2000
   10.8546  -23.2684  -23.5131 C   0  0  0  0  0  0  0  0  0  0  0  0
   10.3676  -22.2207  -22.1245 S   0  0  0  0  0  0  0  0  0  0  0  0
    9.4592  -20.7359  -22.6852 C   0  0  0  0  0  0  0  0  0  0  0  0
    8.1480  -21.1501  -23.2526 C   0  0  0  0  0  0  0  0  0  0  0  0
    7.3159  -19.9803  -23.7155 C   0  0  2  0  0  0  0  0  0  0  0  0
    6.0377  -20.5064  -24.2327 N   0  0  0  0  0  0  0  0  0  0  0  0
    4.8558  -20.3371  -23.4391 C   0  0  0  0  0  0  0  0  0  0  0  0
    5.0070  -19.7533  -22.3465 O   0  0  0  0  0  0  0  0  0  0  0  0
    3.6006  -20.8607  -23.9792 C   0  0  2  0  0  0  0  0  0  0  0  0
    3.0956  -19.7529  -24.9496 C   0  0  0  0  0  0  0  0  0  0  0  0
    2.4829  -18.7643  -24.0117 C   0  0  0  0  0  0  0  0  0  0  0  0
    2.2043  -19.4831  -22.7099 C   0  0  0  0  0  0  0  0  0  0  0  0
    2.5059  -20.8576  -23.0206 N   0  0  0  0  0  0  0  0  0  0  0  0
    1.8877  -22.0608  -22.5703 C   0  0  0  0  0  0  0  0  0  0  0  0
    2.2722  -23.2121  -22.9489 O   0  0  0  0  0  0  0  0  0  0  0  0
    0.7320  -22.0637  -21.6171 C   0  0  2  0  0  0  0  0  0  0  0  0
    1.2092  -21.5871  -20.3032 C   0  0  0  0  0  0  0  0  0  0  0  0
    2.2844  -22.3944  -19.6689 C   0  0  0  0  0  0  0  0  0  0  0  0
    3.6214  -22.1269  -19.8565 C   0  0  0  0  0  0  0  0  0  0  0  0
    4.6449  -22.8461  -19.2946 C   0  0  0  0  0  0  0  0  0  0  0  0
    4.3468  -23.9142  -18.4826 C   0  0  0  0  0  0  0  0  0  0  0  0
    5.4187  -24.6100  -17.9358 O   0  0  0  0  0  0  0  0  0  0  0  0
    3.0306  -24.2285  -18.2588 C   0  0  0  0  0  0  0  0  0  0  0  0
    2.0069  -23.4872  -18.8376 C   0  0  0  0  0  0  0  0  0  0  0  0
    0.1856  -23.4038  -21.6210 N   0  0  0  0  0  0  0  0  0  0  0  0
   -1.1000  -23.5949  -22.2615 C   0  0  0  0  0  0  0  0  0  0  0  0
   -1.5860  -22.5158  -22.7442 O   0  0  0  0  0  0  0  0  0  0  0  0
   -1.8227  -24.8137  -22.3969 C   0  0  2  0  0  0  0  0  0  0  0  0
   -3.2609  -24.7118  -21.9203 C   0  0  0  0  0  0  0  0  0  0  0  0
   -4.1044  -23.7263  -22.6352 C   0  0  0  0  0  0  0  0  0  0  0  0
   -5.5246  -23.8331  -22.1430 C   0  0  0  0  0  0  0  0  0  0  0  0
   -5.7104  -23.6000  -20.7511 N   0  0  0  0  0  0  0  0  0  0  0  0
   -7.0524  -23.7152  -20.2614 C   0  0  0  0  0  0  0  0  0  0  0  0
   -7.4002  -23.5197  -18.9046 N   0  0  0  0  0  0  0  0  0  0  0  0
   -7.9768  -24.0189  -21.1036 N   0  0  0  0  0  0  0  0  0  0  0  0
   -1.2874  -26.0192  -21.7927 N   0  0  0  0  0  0  0  0  0  0  0  0
   -1.4747  -27.2267  -22.4869 C   0  0  0  0  0  0  0  0  0  0  0  0
   -2.1142  -27.1953  -23.6063 O   0  0  0  0  0  0  0  0  0  0  0  0
   -1.0170  -28.5823  -22.0888 C   0  0  2  0  0  0  0  0  0  0  0  0
    0.4050  -28.5918  -21.6437 C   0  0  0  0  0  0  0  0  0  0  0  0
    0.6632  -29.9109  -21.1972 O   0  0  0  0  0  0  0  0  0  0  0  0
   -1.3099  -29.5212  -23.1749 N   0  0  0  0  0  0  0  0  0  0  0  0
   -0.7236  -29.2175  -24.4034 C   0  0  0  0  0  0  0  0  0  0  0  0
    0.0369  -28.1811  -24.4644 O   0  0  0  0  0  0  0  0  0  0  0  0
   -0.8627  -29.9410  -25.6955 C   0  0  2  0  0  0  0  0  0  0  0  0
   -0.4373  -31.3545  -25.6642 C   0  0  0  0  0  0  0  0  0  0  0  0
    0.9625  -31.6314  -25.3472 C   0  0  0  0  0  0  0  0  0  0  0  0
    1.8266  -31.7248  -26.4572 C   0  0  0  0  0  0  0  0  0  0  0  0
    3.1641  -31.9863  -26.3264 C   0  0  0  0  0  0  0  0  0  0  0  0
    3.6924  -32.1656  -25.0709 C   0  0  0  0  0  0  0  0  0  0  0  0
    5.0463  -32.4260  -24.9700 O   0  0  0  0  0  0  0  0  0  0  0  0
    2.8562  -32.0756  -23.9807 C   0  0  0  0  0  0  0  0  0  0  0  0
    1.4931  -31.8106  -24.0923 C   0  0  0  0  0  0  0  0  0  0  0  0
   -0.0544  -29.1092  -26.5732 N   0  0  0  0  0  0  0  0  0  0  0  0
   -0.4795  -28.4792  -27.7708 C   0  0  0  0  0  0  0  0  0  0  0  0
   -1.6407  -28.6707  -28.1512 O   0  0  0  0  0  0  0  0  0  0  0  0
    0.5355  -27.6425  -28.4291 C   0  0  2  0  0  0  0  0  0  0  0  0
    0.6187  -26.3049  -27.6325 C   0  0  0  0  0  0  0  0  0  0  0  0
   -0.6430  -25.5794  -28.0604 C   0  0  0  0  0  0  0  0  0  0  0  0
   -0.9233  -26.1877  -29.4280 C   0  0  0  0  0  0  0  0  0  0  0  0
    0.2140  -27.0504  -29.6952 N   0  0  0  0  0  0  0  0  0  0  0  0
    0.9891  -27.2480  -30.8537 C   0  0  0  0  0  0  0  0  0  0  0  0
    1.9272  -28.1239  -30.9077 O   0  0  0  0  0  0  0  0  0  0  0  0
    0.8292  -26.4662  -32.1287 C   0  0  2  0  0  0  0  0  0  0  0  0
   -0.0789  -27.2122  -33.0606 C   0  0  0  0  0  0  0  0  0  0  0  0
    0.5888  -27.1146  -34.4143 C   0  0  0  0  0  0  0  0  0  0  0  0
    2.0735  -27.1793  -34.0680 C   0  0  0  0  0  0  0  0  0  0  0  0
    2.1159  -26.4716  -32.8180 N   0  0  0  0  0  0  0  0  0  0  0  0
    3.2604  -25.8300  -32.1922 C   0  0  0  0  0  0  0  0  0  0  0  0
    4.3464  -25.9821  -32.8433 O   0  0  0  0  0  0  0  0  0  0  0  0
    3.1785  -25.0867  -30.9424 C   0  0  2  0  0  0  0  0  0  0  0  0
    2.6806  -23.6571  -31.1784 C   0  0  0  0  0  0  0  0  0  0  0  0
    3.9350  -22.8837  -31.4785 C   0  0  0  0  0  0  0  0  0  0  0  0
    5.0768  -23.8039  -31.1027 C   0  0  0  0  0  0  0  0  0  0  0  0
    4.4625  -24.8352  -30.2873 N   0  0  0  0  0  0  0  0  0  0  0  0
    4.8897  -25.4783  -29.1100 C   0  0  0  0  0  0  0  0  0  0  0  0
    4.1384  -26.3842  -28.5868 O   0  0  0  0  0  0  0  0  0  0  0  0
    6.1422  -25.2091  -28.3901 C   0  0  2  0  0  0  0  0  0  0  0  0
    7.2754  -25.8570  -29.1338 C   0  0  0  0  0  0  0  0  0  0  0  0
    8.0251  -26.6931  -28.1377 C   0  0  0  0  0  0  0  0  0  0  0  0
    6.8831  -27.0333  -27.1587 C   0  0  0  0  0  0  0  0  0  0  0  0
    6.1076  -25.8459  -27.0501 N   0  0  0  0  0  0  0  0  0  0  0  0
    5.3945  -25.2387  -25.9926 C   0  0  0  0  0  0  0  0  0  0  0  0
    4.7534  -24.1391  -26.2771 O   0  0  0  0  0  0  0  0  0  0  0  0
    5.2633  -25.6598  -24.6120 C   0  0  2  0  0  0  0  0  0  0  0  0
    5.5343  -24.5304  -23.6253 C   0  0  0  0  0  0  0  0  0  0  0  0
    6.8826  -24.2217  -23.5623 O   0  0  0  0  0  0  0  0  0  0  0  0
    6.0041  -26.7904  -24.1440 N   0  0  0  0  0  0  0  0  0  0  0  0
    5.4244  -28.0091  -23.6943 C   0  0  0  0  0  0  0  0  0  0  0  0
    4.1691  -28.1985  -23.6774 O   0  0  0  0  0  0  0  0  0  0  0  0
    6.2546  -29.1568  -23.2045 C   0  0  2  0  0  0  0  0  0  0  0  0
    5.8990  -29.3741  -21.7404 C   0  0  0  0  0  0  0  0  0  0  0  0
    6.6706  -30.4996  -21.0989 C   0  0  0  0  0  0  0  0  0  0  0  0
    6.4600  -31.8121  -21.7414 C   0  0  0  0  0  0  0  0  0  0  0  0
    7.1349  -32.2584  -22.6967 O   0  0  0  0  0  0  0  0  0  0  0  0
    5.4188  -32.5998  -21.2262 O   0  0  0  0  0  0  0  0  0  0  0  0
    7.6445  -28.7962  -23.3586 N   0  0  0  0  0  0  0  0  0  0  0  0
    8.5659  -29.4492  -24.1915 C   0  0  0  0  0  0  0  0  0  0  0  0
    8.2679  -30.4521  -24.9248 O   0  0  0  0  0  0  0  0  0  0  0  0
    9.9932  -29.0081  -24.2884 C   0  0  0  0  0  0  0  0  0  0  0  0
   10.2577  -27.8867  -23.4278 N   0  0  0  0  0  0  0  0  0  0  0  0
    8.0104  -19.1896  -24.7364 C   0  0  0  0  0  0  0  0  0  0  0  0
    9.1081  -18.6037  -24.5869 O   0  0  0  0  0  0  0  0  0  0  0  0
    7.4243  -19.0340  -26.0531 N   0  0  0  0  0  0  0  0  0  0  0  0
    8.1095  -18.2570  -27.0706 C   0  0  1  0  0  0  0  0  0  0  0  0
    8.3778  -19.0820  -28.3070 C   0  0  0  0  0  0  0  0  0  0  0  0
    9.2205  -20.2679  -28.0378 C   0  0  0  0  0  0  0  0  0  0  0  0
    9.6763  -20.5690  -26.9083 O   0  0  0  0  0  0  0  0  0  0  0  0
    9.5314  -21.1015  -29.0938 O   0  0  0  0  0  0  0  0  0  0  0  0
    7.3238  -17.0392  -27.4595 C   0  0  0  0  0  0  0  0  0  0  0  0
    6.6986  -16.9754  -28.5562 O   0  0  0  0  0  0  0  0  0  0  0  0
    7.2881  -15.9611  -26.5913 O   0  0  0  0  0  0  0  0  0  0  0  0
  1  2  1  0
  2  3  1  0
  3  4  1  0
  5  4  1  6
  5  6  1  0
  6  7  1  0
  7  8  2  0
  9  7  1  1
  9 10  1  0
 10 11  1  0
 11 12  1  0
 12 13  1  0
 13 14  1  0
 14 15  2  0
 14 16  1  0
 16 17  1  1
 17 18  1  0
 18 19  2  0
 19 20  1  0
 20 21  2  0
 21 22  1  0
 21 23  1  0
 23 24  2  0
 16 25  1  0
 25 26  1  0
 26 27  2  0
 26 28  1  0
 28 29  1  1
 29 30  1  0
 30 31  1  0
 31 32  1  0
 32 33  1  0
 33 34  1  0
 33 35  2  0
 28 36  1  0
 36 37  1  0
 37 38  2  0
 37 39  1  0
 39 40  1  6
 40 41  1  0
 39 42  1  0
 42 43  1  0
 43 44  2  0
 43 45  1  0
 45 46  1  1
 46 47  1  0
 47 48  2  0
 48 49  1  0
 49 50  2  0
 50 51  1  0
 50 52  1  0
 52 53  2  0
 45 54  1  0
 54 55  1  0
 55 56  2  0
 57 55  1  1
 57 58  1  0
 58 59  1  0
 59 60  1  0
 60 61  1  0
 61 62  1  0
 62 63  2  0
 64 62  1  1
 64 65  1  0
 65 66  1  0
 66 67  1  0
 67 68  1  0
 68 69  1  0
 69 70  2  0
 71 69  1  6
 71 72  1  0
 72 73  1  0
 73 74  1  0
 74 75  1  0
 75 76  1  0
 76 77  2  0
 78 76  1  6
 78 79  1  0
 79 80  1  0
 80 81  1  0
 81 82  1  0
 82 83  1  0
 83 84  2  0
 83 85  1  0
 85 86  1  1
 86 87  1  0
 85 88  1  0
 88 89  1  0
 89 90  2  0
 89 91  1  0
 91 92  1  1
 92 93  1  0
 93 94  1  0
 94 95  2  0
 94 96  1  0
 91 97  1  0
 97 98  1  0
 98 99  2  0
 98100  1  0
100101  1  0
  5102  1  0
102103  2  0
102104  1  0
104105  1  0
105106  1  6
106107  1  0
107108  2  0
107109  1  0
105110  1  0
110111  2  0
110112  1  0
 13  9  1  0
 24 18  1  0
 53 47  1  0
 61 57  1  0
 68 64  1  0
 75 71  1  0
 82 78  1  0
M  CHG  5  35   1  96  -1 101   1 109  -1 112  -1
M  END
>  <shape_align_shape_tanimoto>  (1) 
0.214604471904809

>  <shape_align_color_tanimoto>  (1) 
0.010485576349337443

>  <metric>  (1) 
shape

>  <metric_score>  (1) 
0.215

>  <template_pid>  (1) 
2LTW

>  <template_shape_score>  (1) 
0.215

>  <template_color_score>  (1) 
0.010

>  <template_combo_score>  (1) 
0.113

$$$$
2LTW_color_pose
     RDKit          3D

112118  0  0  0  0  0  0  0  0999 V2000
    1.0162  -29.8522  -18.7225 C   0  0  0  0  0  0  0  0  0  0  0  0
    0.5159  -29.9395  -17.0064 S   0  0  0  0  0  0  0  0  0  0  0  0
   -1.0739  -30.6707  -16.6875 C   0  0  0  0  0  0  0  0  0  0  0  0
   -1.1903  -32.1362  -16.9680 C   0  0  0  0  0  0  0  0  0  0  0  0
   -1.0012  -32.4879  -18.3857 C   0  0  2  0  0  0  0  0  0  0  0  0
   -2.0208  -31.8304  -19.2093 N   0  0  0  0  0  0  0  0  0  0  0  0
   -1.6952  -31.6334  -20.5508 C   0  0  0  0  0  0  0  0  0  0  0  0
   -0.5521  -32.0404  -20.9285 O   0  0  0  0  0  0  0  0  0  0  0  0
   -2.5319  -31.0030  -21.6136 C   0  0  2  0  0  0  0  0  0  0  0  0
   -3.9321  -31.4892  -21.4970 C   0  0  0  0  0  0  0  0  0  0  0  0
   -3.8592  -32.8685  -22.0980 C   0  0  0  0  0  0  0  0  0  0  0  0
   -2.7148  -32.8214  -23.0305 C   0  0  0  0  0  0  0  0  0  0  0  0
   -2.0784  -31.5027  -22.8996 N   0  0  0  0  0  0  0  0  0  0  0  0
   -1.1590  -31.0339  -23.8488 C   0  0  0  0  0  0  0  0  0  0  0  0
   -0.8417  -31.9479  -24.7327 O   0  0  0  0  0  0  0  0  0  0  0  0
   -0.5211  -29.7552  -24.0003 C   0  0  2  0  0  0  0  0  0  0  0  0
    0.5201  -29.4633  -22.9134 C   0  0  0  0  0  0  0  0  0  0  0  0
    1.0886  -28.0925  -23.1436 C   0  0  0  0  0  0  0  0  0  0  0  0
    2.1297  -27.8402  -23.9878 C   0  0  0  0  0  0  0  0  0  0  0  0
    2.6317  -26.5567  -24.1899 C   0  0  0  0  0  0  0  0  0  0  0  0
    2.0440  -25.5071  -23.5021 C   0  0  0  0  0  0  0  0  0  0  0  0
    2.4397  -24.1964  -23.6082 O   0  0  0  0  0  0  0  0  0  0  0  0
    0.9944  -25.7877  -22.6552 C   0  0  0  0  0  0  0  0  0  0  0  0
    0.4820  -27.0411  -22.4394 C   0  0  0  0  0  0  0  0  0  0  0  0
   -1.3853  -28.5802  -24.1532 N   0  0  0  0  0  0  0  0  0  0  0  0
   -1.5903  -28.1780  -25.4640 C   0  0  0  0  0  0  0  0  0  0  0  0
   -1.0257  -28.9426  -26.3675 O   0  0  0  0  0  0  0  0  0  0  0  0
   -2.3050  -27.0528  -26.0905 C   0  0  2  0  0  0  0  0  0  0  0  0
   -3.7480  -27.0039  -25.9024 C   0  0  0  0  0  0  0  0  0  0  0  0
   -4.2962  -26.9060  -24.5173 C   0  0  0  0  0  0  0  0  0  0  0  0
   -5.8352  -26.7816  -24.6439 C   0  0  0  0  0  0  0  0  0  0  0  0
   -6.4457  -26.6651  -23.3339 N   0  0  0  0  0  0  0  0  0  0  0  0
   -7.8476  -26.4715  -23.1719 C   0  0  0  0  0  0  0  0  0  0  0  0
   -8.4653  -26.3517  -21.8852 N   0  0  0  0  0  0  0  0  0  0  0  0
   -8.5831  -26.3980  -24.2357 N   0  0  0  0  0  0  0  0  0  0  0  0
   -2.0920  -27.4218  -27.5545 N   0  0  0  0  0  0  0  0  0  0  0  0
   -0.8254  -27.0985  -28.1413 C   0  0  0  0  0  0  0  0  0  0  0  0
    0.0007  -26.5188  -27.4113 O   0  0  0  0  0  0  0  0  0  0  0  0
   -0.5859  -27.4741  -29.5446 C   0  0  2  0  0  0  0  0  0  0  0  0
   -0.9230  -28.9477  -29.8205 C   0  0  0  0  0  0  0  0  0  0  0  0
   -0.1308  -29.8251  -29.1311 O   0  0  0  0  0  0  0  0  0  0  0  0
    0.7846  -27.2074  -29.9072 N   0  0  0  0  0  0  0  0  0  0  0  0
    1.2363  -26.8040  -31.1762 C   0  0  0  0  0  0  0  0  0  0  0  0
    0.4252  -26.6357  -32.1540 O   0  0  0  0  0  0  0  0  0  0  0  0
    2.6626  -26.5486  -31.4801 C   0  0  2  0  0  0  0  0  0  0  0  0
    3.1335  -27.6495  -32.4158 C   0  0  0  0  0  0  0  0  0  0  0  0
    4.5368  -27.5755  -32.7986 C   0  0  0  0  0  0  0  0  0  0  0  0
    5.4723  -28.2575  -32.0173 C   0  0  0  0  0  0  0  0  0  0  0  0
    6.8285  -28.2410  -32.3195 C   0  0  0  0  0  0  0  0  0  0  0  0
    7.3215  -27.5451  -33.4142 C   0  0  0  0  0  0  0  0  0  0  0  0
    8.6703  -27.5457  -33.6953 O   0  0  0  0  0  0  0  0  0  0  0  0
    6.3999  -26.8767  -34.1763 C   0  0  0  0  0  0  0  0  0  0  0  0
    5.0491  -26.8917  -33.8771 C   0  0  0  0  0  0  0  0  0  0  0  0
    3.5585  -26.6180  -30.3497 N   0  0  0  0  0  0  0  0  0  0  0  0
    4.1749  -25.4033  -29.9686 C   0  0  0  0  0  0  0  0  0  0  0  0
    3.8695  -24.3707  -30.6033 O   0  0  0  0  0  0  0  0  0  0  0  0
    5.1715  -25.2526  -28.8764 C   0  0  2  0  0  0  0  0  0  0  0  0
    4.5481  -24.8679  -27.5825 C   0  0  0  0  0  0  0  0  0  0  0  0
    5.6164  -24.0150  -26.9408 C   0  0  0  0  0  0  0  0  0  0  0  0
    6.0345  -23.1510  -28.1210 C   0  0  0  0  0  0  0  0  0  0  0  0
    5.9141  -24.0241  -29.2641 N   0  0  0  0  0  0  0  0  0  0  0  0
    6.3843  -23.8439  -30.6098 C   0  0  0  0  0  0  0  0  0  0  0  0
    6.1914  -24.8059  -31.4489 O   0  0  0  0  0  0  0  0  0  0  0  0
    7.0622  -22.6718  -31.1383 C   0  0  2  0  0  0  0  0  0  0  0  0
    7.6414  -21.7237  -30.1467 C   0  0  0  0  0  0  0  0  0  0  0  0
    8.0893  -20.6092  -31.1450 C   0  0  0  0  0  0  0  0  0  0  0  0
    6.7170  -20.4177  -31.8559 C   0  0  0  0  0  0  0  0  0  0  0  0
    6.2870  -21.8263  -32.0405 N   0  0  0  0  0  0  0  0  0  0  0  0
    5.2725  -22.1542  -32.9647 C   0  0  0  0  0  0  0  0  0  0  0  0
    4.9784  -23.4115  -33.1208 O   0  0  0  0  0  0  0  0  0  0  0  0
    4.4697  -21.2675  -33.7971 C   0  0  2  0  0  0  0  0  0  0  0  0
    3.8583  -20.0666  -33.1316 C   0  0  0  0  0  0  0  0  0  0  0  0
    2.6446  -20.6184  -32.3948 C   0  0  0  0  0  0  0  0  0  0  0  0
    2.3501  -21.8909  -33.0976 C   0  0  0  0  0  0  0  0  0  0  0  0
    3.2402  -21.9262  -34.2526 N   0  0  0  0  0  0  0  0  0  0  0  0
    2.8795  -22.5049  -35.4799 C   0  0  0  0  0  0  0  0  0  0  0  0
    1.7043  -23.0118  -35.5358 O   0  0  0  0  0  0  0  0  0  0  0  0
    3.6946  -22.5906  -36.6886 C   0  0  2  0  0  0  0  0  0  0  0  0
    3.9262  -21.2306  -37.2074 C   0  0  0  0  0  0  0  0  0  0  0  0
    3.1030  -21.0985  -38.4304 C   0  0  0  0  0  0  0  0  0  0  0  0
    2.9258  -22.5183  -38.9256 C   0  0  0  0  0  0  0  0  0  0  0  0
    3.0106  -23.3559  -37.7485 N   0  0  0  0  0  0  0  0  0  0  0  0
    2.5876  -24.6858  -37.5153 C   0  0  0  0  0  0  0  0  0  0  0  0
    2.7543  -25.2452  -36.3606 O   0  0  0  0  0  0  0  0  0  0  0  0
    1.9339  -25.5780  -38.5119 C   0  0  2  0  0  0  0  0  0  0  0  0
    0.5684  -25.1995  -38.9195 C   0  0  0  0  0  0  0  0  0  0  0  0
    0.1442  -26.1784  -39.8583 O   0  0  0  0  0  0  0  0  0  0  0  0
    1.8276  -26.9297  -37.9322 N   0  0  0  0  0  0  0  0  0  0  0  0
    2.8853  -27.8406  -38.1655 C   0  0  0  0  0  0  0  0  0  0  0  0
    3.8787  -27.4262  -38.8627 O   0  0  0  0  0  0  0  0  0  0  0  0
    2.9613  -29.2240  -37.6840 C   0  0  2  0  0  0  0  0  0  0  0  0
    3.5944  -30.1303  -38.6836 C   0  0  0  0  0  0  0  0  0  0  0  0
    2.9001  -30.2319  -40.0031 C   0  0  0  0  0  0  0  0  0  0  0  0
    3.7108  -31.1801  -40.8466 C   0  0  0  0  0  0  0  0  0  0  0  0
    3.3749  -31.4635  -42.0367 O   0  0  0  0  0  0  0  0  0  0  0  0
    4.8677  -31.7871  -40.3506 O   0  0  0  0  0  0  0  0  0  0  0  0
    1.7672  -29.7235  -37.0612 N   0  0  0  0  0  0  0  0  0  0  0  0
    1.6798  -30.0355  -35.6568 C   0  0  0  0  0  0  0  0  0  0  0  0
    2.6646  -29.8813  -34.9029 O   0  0  0  0  0  0  0  0  0  0  0  0
    0.3564  -30.5388  -35.1996 C   0  0  0  0  0  0  0  0  0  0  0  0
    0.3788  -30.8039  -33.7747 N   0  0  0  0  0  0  0  0  0  0  0  0
   -1.1068  -33.9825  -18.6053 C   0  0  0  0  0  0  0  0  0  0  0  0
   -1.9903  -34.4716  -19.3592 O   0  0  0  0  0  0  0  0  0  0  0  0
   -0.1616  -34.7905  -17.9245 N   0  0  0  0  0  0  0  0  0  0  0  0
   -0.1021  -36.2349  -18.0314 C   0  0  1  0  0  0  0  0  0  0  0  0
    1.2632  -36.6069  -18.5566 C   0  0  0  0  0  0  0  0  0  0  0  0
    1.5544  -36.0223  -19.8945 C   0  0  0  0  0  0  0  0  0  0  0  0
    0.7699  -35.3118  -20.5422 O   0  0  0  0  0  0  0  0  0  0  0  0
    2.8212  -36.3249  -20.4302 O   0  0  0  0  0  0  0  0  0  0  0  0
   -0.2343  -36.9089  -16.7070 C   0  0  0  0  0  0  0  0  0  0  0  0
   -0.4034  -38.1403  -16.6346 O   0  0  0  0  0  0  0  0  0  0  0  0
   -0.1571  -36.0851  -15.5660 O   0  0  0  0  0  0  0  0  0  0  0  0
  1  2  1  0
  2  3  1  0
  3  4  1  0
  5  4  1  1
  5  6  1  0
  6  7  1  0
  7  8  2  0
  9  7  1  1
  9 10  1  0
 10 11  1  0
 11 12  1  0
 12 13  1  0
 13 14  1  0
 14 15  2  0
 14 16  1  0
 16 17  1  1
 17 18  1  0
 18 19  2  0
 19 20  1  0
 20 21  2  0
 21 22  1  0
 21 23  1  0
 23 24  2  0
 16 25  1  0
 25 26  1  0
 26 27  2  0
 26 28  1  0
 28 29  1  1
 29 30  1  0
 30 31  1  0
 31 32  1  0
 32 33  1  0
 33 34  1  0
 33 35  2  0
 28 36  1  0
 36 37  1  0
 37 38  2  0
 37 39  1  0
 39 40  1  1
 40 41  1  0
 39 42  1  0
 42 43  1  0
 43 44  2  0
 43 45  1  0
 45 46  1  6
 46 47  1  0
 47 48  2  0
 48 49  1  0
 49 50  2  0
 50 51  1  0
 50 52  1  0
 52 53  2  0
 45 54  1  0
 54 55  1  0
 55 56  2  0
 57 55  1  6
 57 58  1  0
 58 59  1  0
 59 60  1  0
 60 61  1  0
 61 62  1  0
 62 63  2  0
 64 62  1  1
 64 65  1  0
 65 66  1  0
 66 67  1  0
 67 68  1  0
 68 69  1  0
 69 70  2  0
 71 69  1  1
 71 72  1  0
 72 73  1  0
 73 74  1  0
 74 75  1  0
 75 76  1  0
 76 77  2  0
 78 76  1  1
 78 79  1  0
 79 80  1  0
 80 81  1  0
 81 82  1  0
 82 83  1  0
 83 84  2  0
 83 85  1  0
 85 86  1  1
 86 87  1  0
 85 88  1  0
 88 89  1  0
 89 90  2  0
 89 91  1  0
 91 92  1  6
 92 93  1  0
 93 94  1  0
 94 95  2  0
 94 96  1  0
 91 97  1  0
 97 98  1  0
 98 99  2  0
 98100  1  0
100101  1  0
  5102  1  0
102103  2  0
102104  1  0
104105  1  0
105106  1  1
106107  1  0
107108  2  0
107109  1  0
105110  1  0
110111  2  0
110112  1  0
 13  9  1  0
 24 18  1  0
 53 47  1  0
 61 57  1  0
 68 64  1  0
 75 71  1  0
 82 78  1  0
M  CHG  5  35   1  96  -1 101   1 109  -1 112  -1
M  END
>  <shape_align_shape_tanimoto>  (2) 
0.1790812413005749

>  <shape_align_color_tanimoto>  (2) 
0.039463780611845023

>  <metric>  (2) 
color

>  <metric_score>  (2) 
0.039

>  <template_pid>  (2) 
2LTW

>  <template_shape_score>  (2) 
0.179

>  <template_color_score>  (2) 
0.039

>  <template_combo_score>  (2) 
0.109

$$$$
2LTW_combo_pose
     RDKit          3D

112118  0  0  0  0  0  0  0  0999 V2000
    2.6539  -19.4968  -33.0074 C   0  0  0  0  0  0  0  0  0  0  0  0
    2.9297  -17.8162  -32.4824 S   0  0  0  0  0  0  0  0  0  0  0  0
    1.6257  -17.2171  -31.4306 C   0  0  0  0  0  0  0  0  0  0  0  0
    1.5784  -17.8375  -30.0948 C   0  0  0  0  0  0  0  0  0  0  0  0
    1.3180  -19.2956  -29.9735 C   0  0  2  0  0  0  0  0  0  0  0  0
    0.0257  -19.6186  -30.5400 N   0  0  0  0  0  0  0  0  0  0  0  0
   -0.2485  -20.7873  -31.2948 C   0  0  0  0  0  0  0  0  0  0  0  0
    0.6181  -21.6674  -31.5494 O   0  0  0  0  0  0  0  0  0  0  0  0
   -1.6389  -20.9638  -31.8027 C   0  0  2  0  0  0  0  0  0  0  0  0
   -2.5053  -21.2358  -30.5928 C   0  0  0  0  0  0  0  0  0  0  0  0
   -2.4949  -22.7503  -30.4580 C   0  0  0  0  0  0  0  0  0  0  0  0
   -2.4939  -23.1907  -31.9087 C   0  0  0  0  0  0  0  0  0  0  0  0
   -1.7215  -22.1781  -32.6371 N   0  0  0  0  0  0  0  0  0  0  0  0
   -1.1289  -22.2829  -33.9160 C   0  0  0  0  0  0  0  0  0  0  0  0
   -0.4908  -21.2399  -34.3368 O   0  0  0  0  0  0  0  0  0  0  0  0
   -1.1415  -23.4148  -34.8229 C   0  0  2  0  0  0  0  0  0  0  0  0
   -1.4243  -22.8488  -36.2256 C   0  0  0  0  0  0  0  0  0  0  0  0
   -1.4293  -23.8661  -37.2704 C   0  0  0  0  0  0  0  0  0  0  0  0
   -0.1775  -24.2470  -37.7782 C   0  0  0  0  0  0  0  0  0  0  0  0
   -0.0656  -25.1789  -38.7856 C   0  0  0  0  0  0  0  0  0  0  0  0
   -1.1628  -25.7920  -39.3555 C   0  0  0  0  0  0  0  0  0  0  0  0
   -1.0854  -26.7260  -40.3645 O   0  0  0  0  0  0  0  0  0  0  0  0
   -2.4110  -25.4221  -38.8595 C   0  0  0  0  0  0  0  0  0  0  0  0
   -2.5068  -24.4738  -37.8366 C   0  0  0  0  0  0  0  0  0  0  0  0
   -1.8788  -24.5696  -34.4883 N   0  0  0  0  0  0  0  0  0  0  0  0
   -3.2785  -24.7733  -34.5915 C   0  0  0  0  0  0  0  0  0  0  0  0
   -4.0145  -23.8446  -35.0032 O   0  0  0  0  0  0  0  0  0  0  0  0
   -3.8914  -26.1227  -34.2085 C   0  0  2  0  0  0  0  0  0  0  0  0
   -4.9185  -25.8365  -33.1796 C   0  0  0  0  0  0  0  0  0  0  0  0
   -5.7095  -26.9645  -32.6285 C   0  0  0  0  0  0  0  0  0  0  0  0
   -5.0053  -28.0364  -31.8948 C   0  0  0  0  0  0  0  0  0  0  0  0
   -6.0491  -28.9966  -31.4658 N   0  0  0  0  0  0  0  0  0  0  0  0
   -5.6636  -30.1396  -30.7102 C   0  0  0  0  0  0  0  0  0  0  0  0
   -6.6645  -31.0636  -30.3055 N   0  0  0  0  0  0  0  0  0  0  0  0
   -4.4430  -30.3700  -30.3854 N   0  0  0  0  0  0  0  0  0  0  0  0
   -2.8305  -26.9510  -33.7069 N   0  0  0  0  0  0  0  0  0  0  0  0
   -2.3410  -28.1240  -34.3469 C   0  0  0  0  0  0  0  0  0  0  0  0
   -2.8210  -28.5556  -35.4297 O   0  0  0  0  0  0  0  0  0  0  0  0
   -1.2006  -28.9075  -33.7330 C   0  0  2  0  0  0  0  0  0  0  0  0
   -1.6159  -30.2961  -33.3411 C   0  0  0  0  0  0  0  0  0  0  0  0
   -0.5401  -30.9538  -32.7515 O   0  0  0  0  0  0  0  0  0  0  0  0
   -0.7544  -28.1059  -32.5872 N   0  0  0  0  0  0  0  0  0  0  0  0
    0.4781  -27.4602  -32.7108 C   0  0  0  0  0  0  0  0  0  0  0  0
    1.1425  -27.6116  -33.7948 O   0  0  0  0  0  0  0  0  0  0  0  0
    1.1115  -26.5902  -31.6915 C   0  0  2  0  0  0  0  0  0  0  0  0
    2.5313  -27.0121  -31.5767 C   0  0  0  0  0  0  0  0  0  0  0  0
    3.3986  -26.2764  -30.6769 C   0  0  0  0  0  0  0  0  0  0  0  0
    3.8746  -25.0299  -31.1565 C   0  0  0  0  0  0  0  0  0  0  0  0
    4.7238  -24.2551  -30.4280 C   0  0  0  0  0  0  0  0  0  0  0  0
    5.1791  -24.6198  -29.1843 C   0  0  0  0  0  0  0  0  0  0  0  0
    6.0368  -23.8319  -28.4532 O   0  0  0  0  0  0  0  0  0  0  0  0
    4.7264  -25.8432  -28.6876 C   0  0  0  0  0  0  0  0  0  0  0  0
    3.8599  -26.6240  -29.4429 C   0  0  0  0  0  0  0  0  0  0  0  0
    0.3035  -26.4811  -30.5208 N   0  0  0  0  0  0  0  0  0  0  0  0
    0.3231  -27.2259  -29.3417 C   0  0  0  0  0  0  0  0  0  0  0  0
    1.0892  -28.1920  -29.0929 O   0  0  0  0  0  0  0  0  0  0  0  0
   -0.6359  -26.8629  -28.2661 C   0  0  2  0  0  0  0  0  0  0  0  0
   -0.6609  -25.4092  -27.9667 C   0  0  0  0  0  0  0  0  0  0  0  0
    0.0290  -25.2319  -26.6701 C   0  0  0  0  0  0  0  0  0  0  0  0
    0.6156  -26.6138  -26.3800 C   0  0  0  0  0  0  0  0  0  0  0  0
   -0.3230  -27.5440  -26.9912 N   0  0  0  0  0  0  0  0  0  0  0  0
   -0.8626  -28.7583  -26.5824 C   0  0  0  0  0  0  0  0  0  0  0  0
   -1.6744  -29.3210  -27.4371 O   0  0  0  0  0  0  0  0  0  0  0  0
   -0.6767  -29.5152  -25.3554 C   0  0  2  0  0  0  0  0  0  0  0  0
   -2.0287  -29.8947  -24.7601 C   0  0  0  0  0  0  0  0  0  0  0  0
   -2.1649  -28.9976  -23.5492 C   0  0  0  0  0  0  0  0  0  0  0  0
   -0.8890  -28.1833  -23.4921 C   0  0  0  0  0  0  0  0  0  0  0  0
    0.0791  -28.9456  -24.3016 N   0  0  0  0  0  0  0  0  0  0  0  0
    1.4585  -28.9970  -23.9555 C   0  0  0  0  0  0  0  0  0  0  0  0
    1.8192  -28.3303  -22.9617 O   0  0  0  0  0  0  0  0  0  0  0  0
    2.3427  -29.8289  -24.7947 C   0  0  2  0  0  0  0  0  0  0  0  0
    2.1469  -31.2963  -24.4255 C   0  0  0  0  0  0  0  0  0  0  0  0
    3.2525  -31.5728  -23.4514 C   0  0  0  0  0  0  0  0  0  0  0  0
    3.9917  -30.2460  -23.2504 C   0  0  0  0  0  0  0  0  0  0  0  0
    3.7528  -29.6510  -24.5557 N   0  0  0  0  0  0  0  0  0  0  0  0
    4.6430  -29.0299  -25.4616 C   0  0  0  0  0  0  0  0  0  0  0  0
    4.2560  -28.5914  -26.5824 O   0  0  0  0  0  0  0  0  0  0  0  0
    6.1130  -28.8534  -25.1516 C   0  0  2  0  0  0  0  0  0  0  0  0
    6.3106  -27.3952  -24.7400 C   0  0  0  0  0  0  0  0  0  0  0  0
    7.6044  -27.0352  -25.3698 C   0  0  0  0  0  0  0  0  0  0  0  0
    7.8860  -28.0132  -26.4780 C   0  0  0  0  0  0  0  0  0  0  0  0
    6.8301  -29.0012  -26.4250 N   0  0  0  0  0  0  0  0  0  0  0  0
    6.4736  -30.0052  -27.3856 C   0  0  0  0  0  0  0  0  0  0  0  0
    5.4876  -30.7812  -27.1240 O   0  0  0  0  0  0  0  0  0  0  0  0
    7.1404  -30.2301  -28.6539 C   0  0  2  0  0  0  0  0  0  0  0  0
    7.3948  -31.7391  -28.8315 C   0  0  0  0  0  0  0  0  0  0  0  0
    8.4335  -32.1503  -28.0049 O   0  0  0  0  0  0  0  0  0  0  0  0
    8.2806  -29.4594  -28.9809 N   0  0  0  0  0  0  0  0  0  0  0  0
    8.2702  -28.6242  -30.1288 C   0  0  0  0  0  0  0  0  0  0  0  0
    7.2310  -28.5421  -30.8599 O   0  0  0  0  0  0  0  0  0  0  0  0
    9.4289  -27.7989  -30.5623 C   0  0  2  0  0  0  0  0  0  0  0  0
    9.5040  -27.5571  -32.0157 C   0  0  0  0  0  0  0  0  0  0  0  0
    9.6224  -28.7589  -32.8898 C   0  0  0  0  0  0  0  0  0  0  0  0
    9.6678  -28.2758  -34.3212 C   0  0  0  0  0  0  0  0  0  0  0  0
    9.8126  -29.0852  -35.2708 O   0  0  0  0  0  0  0  0  0  0  0  0
    9.5536  -26.9309  -34.6379 O   0  0  0  0  0  0  0  0  0  0  0  0
   10.6773  -28.1515  -29.9624 N   0  0  0  0  0  0  0  0  0  0  0  0
   11.1607  -29.4892  -29.8557 C   0  0  0  0  0  0  0  0  0  0  0  0
   10.5056  -30.4888  -30.3062 O   0  0  0  0  0  0  0  0  0  0  0  0
   12.4585  -29.8329  -29.2150 C   0  0  0  0  0  0  0  0  0  0  0  0
   13.1881  -28.7072  -28.7225 N   0  0  0  0  0  0  0  0  0  0  0  0
    1.1347  -19.5357  -28.4697 C   0  0  0  0  0  0  0  0  0  0  0  0
    0.0084  -19.9072  -28.1046 O   0  0  0  0  0  0  0  0  0  0  0  0
    2.2488  -19.3191  -27.6198 N   0  0  0  0  0  0  0  0  0  0  0  0
    2.2154  -19.5005  -26.1838 C   0  0  1  0  0  0  0  0  0  0  0  0
    3.2359  -20.5486  -25.7873 C   0  0  0  0  0  0  0  0  0  0  0  0
    2.9513  -21.8442  -26.4391 C   0  0  0  0  0  0  0  0  0  0  0  0
    2.0119  -22.0743  -27.2125 O   0  0  0  0  0  0  0  0  0  0  0  0
    3.8202  -22.9008  -26.1565 O   0  0  0  0  0  0  0  0  0  0  0  0
    2.5976  -18.2050  -25.5143 C   0  0  0  0  0  0  0  0  0  0  0  0
    2.4065  -18.0576  -24.2824 O   0  0  0  0  0  0  0  0  0  0  0  0
    3.1575  -17.1709  -26.2417 O   0  0  0  0  0  0  0  0  0  0  0  0
  1  2  1  0
  2  3  1  0
  3  4  1  0
  5  4  1  1
  5  6  1  0
  6  7  1  0
  7  8  2  0
  9  7  1  1
  9 10  1  0
 10 11  1  0
 11 12  1  0
 12 13  1  0
 13 14  1  0
 14 15  2  0
 14 16  1  0
 16 17  1  6
 17 18  1  0
 18 19  2  0
 19 20  1  0
 20 21  2  0
 21 22  1  0
 21 23  1  0
 23 24  2  0
 16 25  1  0
 25 26  1  0
 26 27  2  0
 26 28  1  0
 28 29  1  1
 29 30  1  0
 30 31  1  0
 31 32  1  0
 32 33  1  0
 33 34  1  0
 33 35  2  0
 28 36  1  0
 36 37  1  0
 37 38  2  0
 37 39  1  0
 39 40  1  1
 40 41  1  0
 39 42  1  0
 42 43  1  0
 43 44  2  0
 43 45  1  0
 45 46  1  1
 46 47  1  0
 47 48  2  0
 48 49  1  0
 49 50  2  0
 50 51  1  0
 50 52  1  0
 52 53  2  0
 45 54  1  0
 54 55  1  0
 55 56  2  0
 57 55  1  6
 57 58  1  0
 58 59  1  0
 59 60  1  0
 60 61  1  0
 61 62  1  0
 62 63  2  0
 64 62  1  6
 64 65  1  0
 65 66  1  0
 66 67  1  0
 67 68  1  0
 68 69  1  0
 69 70  2  0
 71 69  1  1
 71 72  1  0
 72 73  1  0
 73 74  1  0
 74 75  1  0
 75 76  1  0
 76 77  2  0
 78 76  1  6
 78 79  1  0
 79 80  1  0
 80 81  1  0
 81 82  1  0
 82 83  1  0
 83 84  2  0
 83 85  1  0
 85 86  1  1
 86 87  1  0
 85 88  1  0
 88 89  1  0
 89 90  2  0
 89 91  1  0
 91 92  1  6
 92 93  1  0
 93 94  1  0
 94 95  2  0
 94 96  1  0
 91 97  1  0
 97 98  1  0
 98 99  2  0
 98100  1  0
100101  1  0
  5102  1  0
102103  2  0
102104  1  0
104105  1  0
105106  1  6
106107  1  0
107108  2  0
107109  1  0
105110  1  0
110111  2  0
110112  1  0
 13  9  1  0
 24 18  1  0
 53 47  1  0
 61 57  1  0
 68 64  1  0
 75 71  1  0
 82 78  1  0
M  CHG  5  35   1  96  -1 101   1 109  -1 112  -1
M  END
>  <shape_align_shape_tanimoto>  (3) 
0.20478936748441467

>  <shape_align_color_tanimoto>  (3) 
0.02599491681518314

>  <metric>  (3) 
combo

>  <metric_score>  (3) 
0.115

>  <template_pid>  (3) 
2LTW

>  <template_shape_score>  (3) 
0.205

>  <template_color_score>  (3) 
0.026

>  <template_combo_score>  (3) 
0.115

$$$$
