2VNP_shape_pose
     RDKit          3D

 14 13  0  0  0  0  0  0  0  0999 V2000
    3.8968   13.0228   -4.6110 C   0  0  0  0  0  0  0  0  0  0  0  0
    3.8406   11.6087   -4.9493 N   0  0  0  0  0  0  0  0  0  0  0  0
    4.3387   10.7451   -3.9188 C   0  0  0  0  0  0  0  0  0  0  0  0
    4.6255   11.3584   -6.1612 C   0  0  0  0  0  0  0  0  0  0  0  0
    3.7334   11.7618   -7.3281 C   0  0  0  0  0  0  0  0  0  0  0  0
    3.4453   13.0930   -7.1517 O   0  0  0  0  0  0  0  0  0  0  0  0
    2.4692   13.7699   -8.3206 P   0  0  2  0  0  5  0  0  0  0  0  0
    3.1199   14.9308   -9.0297 O   0  0  0  0  0  0  0  0  0  0  0  0
    1.0534   14.3273   -7.5403 O   0  0  0  0  0  0  0  0  0  0  0  0
    2.0493   12.5782   -9.4291 O   0  0  0  0  0  0  0  0  0  0  0  0
    2.9162   12.7589  -10.8644 P   0  0  0  0  0  0  0  0  0  0  0  0
    4.3871   12.9420  -10.6447 O   0  0  0  0  0  0  0  0  0  0  0  0
    2.3323   14.1021  -11.7041 O   0  0  0  0  0  0  0  0  0  0  0  0
    2.6326   11.3676  -11.7940 O   0  0  0  0  0  0  0  0  0  0  0  0
  1  2  1  0
  2  3  1  0
  2  4  1  0
  4  5  1  0
  5  6  1  0
  6  7  1  0
  7  8  2  0
  7  9  1  1
  7 10  1  0
 10 11  1  0
 11 12  2  0
 11 13  1  0
 11 14  1  0
M  CHG  1   2   1
M  END
>  <shape_align_shape_tanimoto>  (1) 
0.68499975960309156

>  <shape_align_color_tanimoto>  (1) 
0.015408205684510609

>  <metric>  (1) 
shape

>  <metric_score>  (1) 
0.685

>  <template_pid>  (1) 
2VNP

>  <template_shape_score>  (1) 
0.685

>  <template_color_score>  (1) 
0.015

>  <template_combo_score>  (1) 
0.350

$$$$
2VNP_color_pose
     RDKit          3D

 14 13  0  0  0  0  0  0  0  0999 V2000
    3.9699   11.2234   -3.1356 C   0  0  0  0  0  0  0  0  0  0  0  0
    4.1235   11.4723   -4.5418 N   0  0  0  0  0  0  0  0  0  0  0  0
    5.4123   10.9440   -4.9995 C   0  0  0  0  0  0  0  0  0  0  0  0
    4.0232   12.8866   -4.8895 C   0  0  0  0  0  0  0  0  0  0  0  0
    3.1978   13.0591   -6.1715 C   0  0  0  0  0  0  0  0  0  0  0  0
    3.7663   12.4012   -7.2340 O   0  0  0  0  0  0  0  0  0  0  0  0
    2.9415   12.5284   -8.6789 P   0  0  2  0  0  5  0  0  0  0  0  0
    1.4646   12.7862   -8.5252 O   0  0  0  0  0  0  0  0  0  0  0  0
    3.2155   11.0847   -9.5528 O   0  0  0  0  0  0  0  0  0  0  0  0
    3.5290   13.7775   -9.6763 O   0  0  0  0  0  0  0  0  0  0  0  0
    2.9425   13.4612  -11.2321 P   0  0  0  0  0  0  0  0  0  0  0  0
    2.0156   14.5684  -11.6907 O   0  0  0  0  0  0  0  0  0  0  0  0
    4.2827   13.3216  -12.2561 O   0  0  0  0  0  0  0  0  0  0  0  0
    2.1128   11.9919  -11.3213 O   0  0  0  0  0  0  0  0  0  0  0  0
  1  2  1  0
  2  3  1  0
  2  4  1  0
  4  5  1  0
  5  6  1  0
  6  7  1  0
  7  8  2  0
  7  9  1  6
  7 10  1  0
 10 11  1  0
 11 12  2  0
 11 13  1  0
 11 14  1  0
M  CHG  1   2   1
M  END
>  <shape_align_shape_tanimoto>  (2) 
0.66710107274822983

>  <shape_align_color_tanimoto>  (2) 
0.084871753662131177

>  <metric>  (2) 
color

>  <metric_score>  (2) 
0.085

>  <template_pid>  (2) 
2VNP

>  <template_shape_score>  (2) 
0.667

>  <template_color_score>  (2) 
0.085

>  <template_combo_score>  (2) 
0.376

$$$$
2VNP_combo_pose
     RDKit          3D

 14 13  0  0  0  0  0  0  0  0999 V2000
    3.9699   11.2234   -3.1356 C   0  0  0  0  0  0  0  0  0  0  0  0
    4.1235   11.4723   -4.5418 N   0  0  0  0  0  0  0  0  0  0  0  0
    5.4123   10.9440   -4.9995 C   0  0  0  0  0  0  0  0  0  0  0  0
    4.0232   12.8866   -4.8895 C   0  0  0  0  0  0  0  0  0  0  0  0
    3.1978   13.0591   -6.1715 C   0  0  0  0  0  0  0  0  0  0  0  0
    3.7663   12.4012   -7.2340 O   0  0  0  0  0  0  0  0  0  0  0  0
    2.9415   12.5284   -8.6789 P   0  0  2  0  0  5  0  0  0  0  0  0
    1.4646   12.7862   -8.5252 O   0  0  0  0  0  0  0  0  0  0  0  0
    3.2155   11.0847   -9.5528 O   0  0  0  0  0  0  0  0  0  0  0  0
    3.5290   13.7775   -9.6763 O   0  0  0  0  0  0  0  0  0  0  0  0
    2.9425   13.4612  -11.2321 P   0  0  0  0  0  0  0  0  0  0  0  0
    2.0156   14.5684  -11.6907 O   0  0  0  0  0  0  0  0  0  0  0  0
    4.2827   13.3216  -12.2561 O   0  0  0  0  0  0  0  0  0  0  0  0
    2.1128   11.9919  -11.3213 O   0  0  0  0  0  0  0  0  0  0  0  0
  1  2  1  0
  2  3  1  0
  2  4  1  0
  4  5  1  0
  5  6  1  0
  6  7  1  0
  7  8  2  0
  7  9  1  6
  7 10  1  0
 10 11  1  0
 11 12  2  0
 11 13  1  0
 11 14  1  0
M  CHG  1   2   1
M  END
>  <shape_align_shape_tanimoto>  (3) 
0.66710107274822983

>  <shape_align_color_tanimoto>  (3) 
0.084871753662131177

>  <metric>  (3) 
combo

>  <metric_score>  (3) 
0.376

>  <template_pid>  (3) 
2VNP

>  <template_shape_score>  (3) 
0.667

>  <template_color_score>  (3) 
0.085

>  <template_combo_score>  (3) 
0.376

$$$$
