4DHT_shape_pose
     RDKit          3D

 21 22  0  0  0  0  0  0  0  0999 V2000
    2.7657   40.8760  -10.9502 O   0  0  0  0  0  0  0  0  0  0  0  0
    2.6894   41.7642  -11.8454 C   0  0  0  0  0  0  0  0  0  0  0  0
    3.3683   41.4867  -13.1243 C   0  0  0  0  0  0  0  0  0  0  0  0
    3.2096   42.5234  -14.0596 O   0  0  0  0  0  0  0  0  0  0  0  0
    1.9418   42.7935  -14.5408 C   0  0  0  0  0  0  0  0  0  0  0  0
    0.8038   42.1028  -14.1886 C   0  0  0  0  0  0  0  0  0  0  0  0
   -0.4475   42.4305  -14.7211 C   0  0  0  0  0  0  0  0  0  0  0  0
   -0.4958   43.4786  -15.6178 C   0  0  0  0  0  0  0  0  0  0  0  0
    0.6076   44.2004  -16.0036 C   0  0  0  0  0  0  0  0  0  0  0  0
    1.8326   43.8388  -15.4477 C   0  0  0  0  0  0  0  0  0  0  0  0
    3.2899   44.7702  -15.9389 P   0  0  0  0  0  0  0  0  0  0  0  0
    4.3174   44.7914  -14.8505 O   0  0  0  0  0  0  0  0  0  0  0  0
    3.9520   43.9017  -17.2541 O   0  0  0  0  0  0  0  0  0  0  0  0
    2.8875   46.2910  -16.4943 O   0  0  0  0  0  0  0  0  0  0  0  0
    1.9666   42.9335  -11.5294 N   0  0  0  0  0  0  0  0  0  0  0  0
    1.3442   43.0853  -10.2503 C   0  0  0  0  0  0  0  0  0  0  0  0
   -0.1609   43.1052  -10.4698 C   0  0  0  0  0  0  0  0  0  0  0  0
   -0.6292   44.2825  -11.2727 C   0  0  0  0  0  0  0  0  0  0  0  0
    0.1381   45.5395  -10.9822 C   0  0  0  0  0  0  0  0  0  0  0  0
    0.8774   45.5027   -9.6798 C   0  0  0  0  0  0  0  0  0  0  0  0
    1.7096   44.2700   -9.4620 C   0  0  0  0  0  0  0  0  0  0  0  0
  1  2  2  0
  2  3  1  0
  3  4  1  0
  4  5  1  0
  5  6  2  0
  6  7  1  0
  7  8  2  0
  8  9  1  0
  9 10  2  0
 10 11  1  0
 11 12  2  0
 11 13  1  0
 11 14  1  0
  2 15  1  0
 15 16  1  0
 16 17  1  0
 17 18  1  0
 18 19  1  0
 19 20  1  0
 20 21  1  0
 10  5  1  0
 21 16  1  0
M  END
>  <shape_align_shape_tanimoto>  (1) 
0.16604096099784682

>  <shape_align_color_tanimoto>  (1) 
0.026356431935862373

>  <metric>  (1) 
shape

>  <metric_score>  (1) 
0.166

>  <template_pid>  (1) 
4DHT

>  <template_shape_score>  (1) 
0.166

>  <template_color_score>  (1) 
0.026

>  <template_combo_score>  (1) 
0.096

$$$$
4DHT_color_pose
     RDKit          3D

 21 22  0  0  0  0  0  0  0  0999 V2000
    0.0545   43.3528  -17.1417 O   0  0  0  0  0  0  0  0  0  0  0  0
    0.4739   43.4873  -15.9417 C   0  0  0  0  0  0  0  0  0  0  0  0
   -0.4303   43.0818  -14.8583 C   0  0  0  0  0  0  0  0  0  0  0  0
    0.0438   43.2229  -13.5592 O   0  0  0  0  0  0  0  0  0  0  0  0
    1.1222   42.5793  -12.9973 C   0  0  0  0  0  0  0  0  0  0  0  0
    1.9230   41.6612  -13.6313 C   0  0  0  0  0  0  0  0  0  0  0  0
    2.9929   41.0309  -13.0453 C   0  0  0  0  0  0  0  0  0  0  0  0
    3.3089   41.3265  -11.7151 C   0  0  0  0  0  0  0  0  0  0  0  0
    2.5078   42.2527  -11.0625 C   0  0  0  0  0  0  0  0  0  0  0  0
    1.4388   42.8706  -11.6763 C   0  0  0  0  0  0  0  0  0  0  0  0
    0.5045   44.0388  -10.7039 P   0  0  0  0  0  0  0  0  0  0  0  0
   -0.6511   44.6184  -11.4606 O   0  0  0  0  0  0  0  0  0  0  0  0
   -0.1250   43.2826   -9.3123 O   0  0  0  0  0  0  0  0  0  0  0  0
    1.5155   45.3067  -10.1711 O   0  0  0  0  0  0  0  0  0  0  0  0
    1.7705   44.0181  -15.7917 N   0  0  0  0  0  0  0  0  0  0  0  0
    2.6182   44.3965  -16.9232 C   0  0  0  0  0  0  0  0  0  0  0  0
    3.9156   43.6538  -16.9051 C   0  0  0  0  0  0  0  0  0  0  0  0
    5.1404   44.5241  -16.8242 C   0  0  0  0  0  0  0  0  0  0  0  0
    5.0424   45.6060  -15.7882 C   0  0  0  0  0  0  0  0  0  0  0  0
    3.6791   46.2107  -15.6691 C   0  0  0  0  0  0  0  0  0  0  0  0
    2.8639   45.8897  -16.8795 C   0  0  0  0  0  0  0  0  0  0  0  0
  1  2  2  0
  2  3  1  0
  3  4  1  0
  4  5  1  0
  5  6  2  0
  6  7  1  0
  7  8  2  0
  8  9  1  0
  9 10  2  0
 10 11  1  0
 11 12  2  0
 11 13  1  0
 11 14  1  0
  2 15  1  0
 15 16  1  0
 16 17  1  0
 17 18  1  0
 18 19  1  0
 19 20  1  0
 20 21  1  0
 10  5  1  0
 21 16  1  0
M  END
>  <shape_align_shape_tanimoto>  (2) 
0.15960435896963029

>  <shape_align_color_tanimoto>  (2) 
0.033718850363039225

>  <metric>  (2) 
color

>  <metric_score>  (2) 
0.034

>  <template_pid>  (2) 
4DHT

>  <template_shape_score>  (2) 
0.160

>  <template_color_score>  (2) 
0.034

>  <template_combo_score>  (2) 
0.097

$$$$
4DHT_combo_pose
     RDKit          3D

 21 22  0  0  0  0  0  0  0  0999 V2000
    0.0545   43.3528  -17.1417 O   0  0  0  0  0  0  0  0  0  0  0  0
    0.4739   43.4873  -15.9417 C   0  0  0  0  0  0  0  0  0  0  0  0
   -0.4303   43.0818  -14.8583 C   0  0  0  0  0  0  0  0  0  0  0  0
    0.0438   43.2229  -13.5592 O   0  0  0  0  0  0  0  0  0  0  0  0
    1.1222   42.5793  -12.9973 C   0  0  0  0  0  0  0  0  0  0  0  0
    1.9230   41.6612  -13.6313 C   0  0  0  0  0  0  0  0  0  0  0  0
    2.9929   41.0309  -13.0453 C   0  0  0  0  0  0  0  0  0  0  0  0
    3.3089   41.3265  -11.7151 C   0  0  0  0  0  0  0  0  0  0  0  0
    2.5078   42.2527  -11.0625 C   0  0  0  0  0  0  0  0  0  0  0  0
    1.4388   42.8706  -11.6763 C   0  0  0  0  0  0  0  0  0  0  0  0
    0.5045   44.0388  -10.7039 P   0  0  0  0  0  0  0  0  0  0  0  0
   -0.6511   44.6184  -11.4606 O   0  0  0  0  0  0  0  0  0  0  0  0
   -0.1250   43.2826   -9.3123 O   0  0  0  0  0  0  0  0  0  0  0  0
    1.5155   45.3067  -10.1711 O   0  0  0  0  0  0  0  0  0  0  0  0
    1.7705   44.0181  -15.7917 N   0  0  0  0  0  0  0  0  0  0  0  0
    2.6182   44.3965  -16.9232 C   0  0  0  0  0  0  0  0  0  0  0  0
    3.9156   43.6538  -16.9051 C   0  0  0  0  0  0  0  0  0  0  0  0
    5.1404   44.5241  -16.8242 C   0  0  0  0  0  0  0  0  0  0  0  0
    5.0424   45.6060  -15.7882 C   0  0  0  0  0  0  0  0  0  0  0  0
    3.6791   46.2107  -15.6691 C   0  0  0  0  0  0  0  0  0  0  0  0
    2.8639   45.8897  -16.8795 C   0  0  0  0  0  0  0  0  0  0  0  0
  1  2  2  0
  2  3  1  0
  3  4  1  0
  4  5  1  0
  5  6  2  0
  6  7  1  0
  7  8  2  0
  8  9  1  0
  9 10  2  0
 10 11  1  0
 11 12  2  0
 11 13  1  0
 11 14  1  0
  2 15  1  0
 15 16  1  0
 16 17  1  0
 17 18  1  0
 18 19  1  0
 19 20  1  0
 20 21  1  0
 10  5  1  0
 21 16  1  0
M  END
>  <shape_align_shape_tanimoto>  (3) 
0.15960435896963029

>  <shape_align_color_tanimoto>  (3) 
0.033718850363039225

>  <metric>  (3) 
combo

>  <metric_score>  (3) 
0.097

>  <template_pid>  (3) 
4DHT

>  <template_shape_score>  (3) 
0.160

>  <template_color_score>  (3) 
0.034

>  <template_combo_score>  (3) 
0.097

$$$$
