6EM7_shape_pose
     RDKit          3D

137138  0  0  0  0  0  0  0  0999 V2000
  -17.3985   10.8351   36.8610 C   0  0  0  0  0  0  0  0  0  0  0  0
  -17.6634   12.3077   37.1049 C   0  0  0  0  0  0  0  0  0  0  0  0
  -17.0418   13.1361   35.9926 C   0  0  2  0  0  0  0  0  0  0  0  0
  -15.5510   12.8348   36.0701 C   0  0  0  0  0  0  0  0  0  0  0  0
  -17.2199   14.6047   36.1266 C   0  0  2  0  0  0  0  0  0  0  0  0
  -18.5925   15.0415   36.1580 N   0  0  0  0  0  0  0  0  0  0  0  0
  -19.0192   16.2046   36.8869 C   0  0  0  0  0  0  0  0  0  0  0  0
  -18.2291   16.9282   37.5447 O   0  0  0  0  0  0  0  0  0  0  0  0
  -20.4739   16.5322   36.8270 C   0  0  2  0  0  0  0  0  0  0  0  0
  -20.9149   16.3982   35.4025 C   0  0  0  0  0  0  0  0  0  0  0  0
  -20.7806   17.8099   37.4064 N   0  0  0  0  0  0  0  0  0  0  0  0
  -21.7340   17.9668   38.4914 C   0  0  0  0  0  0  0  0  0  0  0  0
  -22.2292   16.8804   38.8678 O   0  0  0  0  0  0  0  0  0  0  0  0
  -22.0640   19.3111   39.0621 C   0  0  2  0  0  0  0  0  0  0  0  0
  -20.8740   20.1120   39.4834 C   0  0  0  0  0  0  0  0  0  0  0  0
  -19.8692   20.1088   38.5451 O   0  0  0  0  0  0  0  0  0  0  0  0
  -23.1061   19.3262   40.0314 N   0  0  0  0  0  0  0  0  0  0  0  0
  -23.4138   18.4388   41.0583 C   0  0  0  0  0  0  0  0  0  0  0  0
  -22.6768   17.4559   41.2530 O   0  0  0  0  0  0  0  0  0  0  0  0
  -24.6364   18.7119   41.8918 C   0  0  2  0  0  0  0  0  0  0  0  0
  -25.5011   19.7947   41.4083 C   0  0  0  0  0  0  0  0  0  0  0  0
  -26.1828   19.6058   40.0768 C   0  0  0  0  0  0  0  0  0  0  0  0
  -27.2093   18.4746   40.1143 C   0  0  0  0  0  0  0  0  0  0  0  0
  -28.2302   18.7212   41.0922 N   0  0  0  0  0  0  0  0  0  0  0  0
  -29.2160   19.7216   41.0547 C   0  0  0  0  0  0  0  0  0  0  0  0
  -30.1506   19.7486   42.1763 N   0  0  0  0  0  0  0  0  0  0  0  0
  -29.3751   20.5839   40.1381 N   0  0  0  0  0  0  0  0  0  0  0  0
  -24.6273   18.4249   43.2636 N   0  0  0  0  0  0  0  0  0  0  0  0
  -24.0490   17.4006   44.0233 C   0  0  0  0  0  0  0  0  0  0  0  0
  -23.3729   16.5359   43.4553 O   0  0  0  0  0  0  0  0  0  0  0  0
  -24.1992   17.2542   45.5198 C   0  0  2  0  0  0  0  0  0  0  0  0
  -24.6338   18.5189   46.1531 C   0  0  0  0  0  0  0  0  0  0  0  0
  -23.7031   19.6778   45.9934 C   0  0  0  0  0  0  0  0  0  0  0  0
  -24.3558   20.8825   46.6461 C   0  0  0  0  0  0  0  0  0  0  0  0
  -23.5044   22.0410   46.5583 N   0  0  0  0  0  0  0  0  0  0  0  0
  -23.9695   23.2892   47.1000 C   0  0  0  0  0  0  0  0  0  0  0  0
  -23.1167   24.4063   46.9882 N   0  0  0  0  0  0  0  0  0  0  0  0
  -25.1290   23.3701   47.6574 N   0  0  0  0  0  0  0  0  0  0  0  0
  -23.1385   16.5447   46.1418 N   0  0  0  0  0  0  0  0  0  0  0  0
  -22.9497   15.1372   46.1891 C   0  0  0  0  0  0  0  0  0  0  0  0
  -23.7541   14.3217   45.6101 O   0  0  0  0  0  0  0  0  0  0  0  0
  -21.7573   14.6437   46.9429 C   0  0  0  0  0  0  0  0  0  0  0  0
  -21.5920   13.2107   46.8373 N   0  0  0  0  0  0  0  0  0  0  0  0
  -20.5720   12.5029   47.4842 C   0  0  0  0  0  0  0  0  0  0  0  0
  -19.7732   13.1547   48.2284 O   0  0  0  0  0  0  0  0  0  0  0  0
  -20.3167   11.0489   47.3787 C   0  0  1  0  0  0  0  0  0  0  0  0
  -19.1359   10.6945   48.2051 N   0  0  0  0  0  0  0  0  0  0  0  0
  -17.8476   10.7866   47.6770 C   0  0  0  0  0  0  0  0  0  0  0  0
  -17.6378   11.1564   46.5086 O   0  0  0  0  0  0  0  0  0  0  0  0
  -16.7242   10.4311   48.6210 C   0  0  2  0  0  0  0  0  0  0  0  0
  -16.9093   11.2549   49.8939 C   0  0  0  0  0  0  0  0  0  0  0  0
  -15.9644   10.7970   50.9451 C   0  0  0  0  0  0  0  0  0  0  0  0
  -15.9791   11.5944   52.2377 C   0  0  0  0  0  0  0  0  0  0  0  0
  -17.2995   11.6339   52.8325 N   0  0  0  0  0  0  0  0  0  0  0  0
  -17.3926   12.2993   54.0998 C   0  0  0  0  0  0  0  0  0  0  0  0
  -18.6095   12.4630   54.8134 N   0  0  0  0  0  0  0  0  0  0  0  0
  -16.3004   12.7734   54.5803 N   0  0  0  0  0  0  0  0  0  0  0  0
  -15.5209   10.9298   47.9074 N   0  0  0  0  0  0  0  0  0  0  0  0
  -14.1922   10.6112   48.0833 C   0  0  0  0  0  0  0  0  0  0  0  0
  -13.7582    9.7831   48.8949 O   0  0  0  0  0  0  0  0  0  0  0  0
  -13.1839   11.3438   47.2453 C   0  0  0  0  0  0  0  0  0  0  0  0
  -11.8511   11.1454   47.7819 N   0  0  0  0  0  0  0  0  0  0  0  0
  -10.8261   11.8469   47.0773 C   0  0  0  0  0  0  0  0  0  0  0  0
  -11.2082   12.5005   46.0659 O   0  0  0  0  0  0  0  0  0  0  0  0
   -9.3871   11.8351   47.5097 C   0  0  2  0  0  0  0  0  0  0  0  0
   -9.2857   11.9722   48.9896 C   0  0  0  0  0  0  0  0  0  0  0  0
   -9.8856   13.2131   49.3690 O   0  0  0  0  0  0  0  0  0  0  0  0
   -8.7085   12.8555   46.7795 N   0  0  0  0  0  0  0  0  0  0  0  0
   -8.2267   12.8132   45.4663 C   0  0  0  0  0  0  0  0  0  0  0  0
   -8.3819   11.7843   44.7421 O   0  0  0  0  0  0  0  0  0  0  0  0
   -7.5047   13.9838   44.8511 C   0  0  2  0  0  0  0  0  0  0  0  0
   -7.9216   15.2542   45.4491 C   0  0  0  0  0  0  0  0  0  0  0  0
   -7.4699   13.8849   43.4175 N   0  0  0  0  0  0  0  0  0  0  0  0
   -6.4842   13.2720   42.6282 C   0  0  0  0  0  0  0  0  0  0  0  0
   -5.4874   12.7322   43.2240 O   0  0  0  0  0  0  0  0  0  0  0  0
   -6.5202   13.2061   41.1272 C   0  0  1  0  0  0  0  0  0  0  0  0
   -7.5497   13.9749   40.5212 N   0  0  0  0  0  0  0  0  0  0  0  0
   -8.9197   13.7347   40.4276 C   0  0  0  0  0  0  0  0  0  0  0  0
   -9.3509   12.6879   40.9722 O   0  0  0  0  0  0  0  0  0  0  0  0
   -9.8834   14.6682   39.7155 C   0  0  2  0  0  0  0  0  0  0  0  0
   -9.2733   15.9823   39.4361 C   0  0  0  0  0  0  0  0  0  0  0  0
  -10.2188   16.8843   38.7635 C   0  0  0  0  0  0  0  0  0  0  0  0
  -10.4086   16.9900   37.4026 C   0  0  0  0  0  0  0  0  0  0  0  0
  -11.2950   17.8803   36.8216 C   0  0  0  0  0  0  0  0  0  0  0  0
  -12.0467   18.7180   37.6105 C   0  0  0  0  0  0  0  0  0  0  0  0
  -11.8552   18.6112   38.9673 C   0  0  0  0  0  0  0  0  0  0  0  0
  -10.9711   17.7256   39.5607 C   0  0  0  0  0  0  0  0  0  0  0  0
  -11.1903   14.6591   40.2635 N   0  0  0  0  0  0  0  0  0  0  0  0
  -12.2514   13.7395   40.0562 C   0  0  0  0  0  0  0  0  0  0  0  0
  -12.0973   12.7986   39.2817 O   0  0  0  0  0  0  0  0  0  0  0  0
  -13.4959   14.0019   40.8533 C   0  0  2  0  0  0  0  0  0  0  0  0
  -13.1029   14.6538   42.1607 C   0  0  0  0  0  0  0  0  0  0  0  0
  -12.1418   13.7768   42.8638 C   0  0  0  0  0  0  0  0  0  0  0  0
  -11.8481   12.6205   42.6009 O   0  0  0  0  0  0  0  0  0  0  0  0
  -11.5052   14.4111   43.9590 O   0  0  0  0  0  0  0  0  0  0  0  0
  -14.3102   12.8771   41.1071 N   0  0  0  0  0  0  0  0  0  0  0  0
  -15.7174   12.7869   40.8539 C   0  0  0  0  0  0  0  0  0  0  0  0
  -16.3846   13.6921   40.3531 O   0  0  0  0  0  0  0  0  0  0  0  0
  -16.3002   11.4490   41.2830 C   0  0  2  0  0  0  0  0  0  0  0  0
  -15.6412   10.3347   40.5679 C   0  0  0  0  0  0  0  0  0  0  0  0
  -17.7216   11.4269   41.1058 N   0  0  0  0  0  0  0  0  0  0  0  0
  -18.4793   12.3347   41.9501 C   0  0  0  0  0  0  0  0  0  0  0  0
  -17.7088   13.0556   42.6636 O   0  0  0  0  0  0  0  0  0  0  0  0
  -19.9156   12.3831   41.9526 C   0  0  2  0  0  0  0  0  0  0  0  0
  -20.5191   12.7192   43.3118 C   0  0  0  0  0  0  0  0  0  0  0  0
  -20.0035   14.0593   43.6969 C   0  0  0  0  0  0  0  0  0  0  0  0
  -19.0144   14.2795   44.6187 C   0  0  0  0  0  0  0  0  0  0  0  0
  -18.5798   15.5638   44.8211 C   0  0  0  0  0  0  0  0  0  0  0  0
  -19.1063   16.6627   44.1212 C   0  0  0  0  0  0  0  0  0  0  0  0
  -18.6041   17.9116   44.3828 O   0  0  0  0  0  0  0  0  0  0  0  0
  -20.1162   16.4219   43.1799 C   0  0  0  0  0  0  0  0  0  0  0  0
  -20.5349   15.1387   42.9985 C   0  0  0  0  0  0  0  0  0  0  0  0
  -20.5993   11.2611   41.3584 N   0  0  0  0  0  0  0  0  0  0  0  0
  -21.9006   11.3176   40.7757 C   0  0  0  0  0  0  0  0  0  0  0  0
  -22.5788   12.4031   40.7337 O   0  0  0  0  0  0  0  0  0  0  0  0
  -22.4388   10.0426   40.2314 C   0  0  1  0  0  0  0  0  0  0  0  0
  -23.8809   10.0928   40.0247 N   0  0  0  0  0  0  0  0  0  0  0  0
  -24.7035    9.7839   41.1413 C   0  0  0  0  0  0  0  0  0  0  0  0
  -24.1053    9.5113   42.2275 O   0  0  0  0  0  0  0  0  0  0  0  0
  -26.1488    9.7724   41.0566 C   0  0  1  0  0  0  0  0  0  0  0  0
  -26.6949    9.6212   42.4222 N   0  0  0  0  0  0  0  0  0  0  0  0
  -26.7931   10.9639   40.3856 C   0  0  1  0  0  0  0  0  0  0  0  0
  -28.2852   10.7012   40.3657 C   0  0  0  0  0  0  0  0  0  0  0  0
  -26.5930   12.1311   41.0808 O   0  0  0  0  0  0  0  0  0  0  0  0
  -21.7381    9.5047   39.0364 C   0  0  1  0  0  0  0  0  0  0  0  0
  -22.0354   10.2922   37.7659 C   0  0  0  0  0  0  0  0  0  0  0  0
  -20.3602    9.5100   39.2756 O   0  0  0  0  0  0  0  0  0  0  0  0
   -5.1894   13.4677   40.4803 C   0  0  1  0  0  0  0  0  0  0  0  0
   -4.6082   14.8208   40.8176 C   0  0  0  0  0  0  0  0  0  0  0  0
   -4.1942   12.3577   40.5736 C   0  0  0  0  0  0  0  0  0  0  0  0
   -2.9240   12.8512   39.8553 C   0  0  0  0  0  0  0  0  0  0  0  0
  -21.4278   10.1572   47.8105 C   0  0  1  0  0  0  0  0  0  0  0  0
  -22.7550   10.3558   47.1601 C   0  0  0  0  0  0  0  0  0  0  0  0
  -21.0841    8.7964   47.6203 O   0  0  0  0  0  0  0  0  0  0  0  0
  -16.5939   15.1643   34.8338 C   0  0  0  0  0  0  0  0  0  0  0  0
  -16.3893   14.4434   33.8469 O   0  0  0  0  0  0  0  0  0  0  0  0
  -16.2657   16.4963   34.7832 O   0  0  0  0  0  0  0  0  0  0  0  0
  1  2  1  0
  2  3  1  0
  3  4  1  1
  3  5  1  0
  5  6  1  6
  6  7  1  0
  7  8  2  0
  7  9  1  0
  9 10  1  6
  9 11  1  0
 11 12  1  0
 12 13  2  0
 12 14  1  0
 14 15  1  1
 15 16  1  0
 14 17  1  0
 17 18  1  0
 18 19  2  0
 18 20  1  0
 20 21  1  1
 21 22  1  0
 22 23  1  0
 23 24  1  0
 24 25  1  0
 25 26  1  0
 25 27  2  0
 20 28  1  0
 28 29  1  0
 29 30  2  0
 29 31  1  0
 31 32  1  1
 32 33  1  0
 33 34  1  0
 34 35  1  0
 35 36  1  0
 36 37  1  0
 36 38  2  0
 31 39  1  0
 39 40  1  0
 40 41  2  0
 40 42  1  0
 42 43  1  0
 43 44  1  0
 44 45  2  0
 44 46  1  0
 46 47  1  1
 47 48  1  0
 48 49  2  0
 48 50  1  0
 50 51  1  1
 51 52  1  0
 52 53  1  0
 53 54  1  0
 54 55  1  0
 55 56  1  0
 55 57  2  0
 50 58  1  0
 58 59  1  0
 59 60  2  0
 59 61  1  0
 61 62  1  0
 62 63  1  0
 63 64  2  0
 63 65  1  0
 65 66  1  1
 66 67  1  0
 65 68  1  0
 68 69  1  0
 69 70  2  0
 69 71  1  0
 71 72  1  6
 71 73  1  0
 73 74  1  0
 74 75  2  0
 74 76  1  0
 76 77  1  6
 77 78  1  0
 78 79  2  0
 78 80  1  0
 80 81  1  1
 81 82  1  0
 82 83  2  0
 83 84  1  0
 84 85  2  0
 85 86  1  0
 86 87  2  0
 80 88  1  0
 88 89  1  0
 89 90  2  0
 89 91  1  0
 91 92  1  1
 92 93  1  0
 93 94  2  0
 93 95  1  0
 91 96  1  0
 96 97  1  0
 97 98  2  0
 97 99  1  0
 99100  1  6
 99101  1  0
101102  1  0
102103  2  0
102104  1  0
104105  1  1
105106  1  0
106107  2  0
107108  1  0
108109  2  0
109110  1  0
109111  1  0
111112  2  0
104113  1  0
113114  1  0
114115  2  0
114116  1  0
116117  1  6
117118  1  0
118119  2  0
118120  1  0
120121  1  1
120122  1  0
122123  1  1
122124  1  0
116125  1  0
125126  1  6
125127  1  0
 76128  1  0
128129  1  1
128130  1  0
130131  1  0
 46132  1  0
132133  1  6
132134  1  0
  5135  1  0
135136  2  0
135137  1  0
 87 82  1  0
112106  1  0
M  CHG  6  27   1  38   1  57   1  95  -1 121   1 137  -1
M  END
>  <shape_align_shape_tanimoto>  (1) 
0.19723551438759476

>  <shape_align_color_tanimoto>  (1) 
0.0068399153632225989

>  <metric>  (1) 
shape

>  <metric_score>  (1) 
0.197

>  <template_pid>  (1) 
6EM7

>  <template_shape_score>  (1) 
0.197

>  <template_color_score>  (1) 
0.007

>  <template_combo_score>  (1) 
0.102

$$$$
6EM7_color_pose
     RDKit          3D

137138  0  0  0  0  0  0  0  0999 V2000
  -19.2322   23.8614   34.3458 C   0  0  0  0  0  0  0  0  0  0  0  0
  -19.4509   22.3502   34.2412 C   0  0  0  0  0  0  0  0  0  0  0  0
  -18.9053   21.7522   32.9837 C   0  0  2  0  0  0  0  0  0  0  0  0
  -19.5724   22.4408   31.7945 C   0  0  0  0  0  0  0  0  0  0  0  0
  -19.2017   20.2748   32.8997 C   0  0  2  0  0  0  0  0  0  0  0  0
  -18.5604   19.7172   34.1507 N   0  0  0  0  0  0  0  0  0  0  0  0
  -19.1638   18.4575   34.5010 C   0  0  0  0  0  0  0  0  0  0  0  0
  -20.0242   18.0441   33.6855 O   0  0  0  0  0  0  0  0  0  0  0  0
  -18.7800   17.7243   35.7531 C   0  0  2  0  0  0  0  0  0  0  0  0
  -19.9380   16.8442   36.1715 C   0  0  0  0  0  0  0  0  0  0  0  0
  -18.5362   18.7030   36.7630 N   0  0  0  0  0  0  0  0  0  0  0  0
  -17.3102   19.2225   37.1886 C   0  0  0  0  0  0  0  0  0  0  0  0
  -16.2403   18.8591   36.6683 O   0  0  0  0  0  0  0  0  0  0  0  0
  -17.2986   20.2182   38.2571 C   0  0  2  0  0  0  0  0  0  0  0  0
  -18.3471   21.2890   38.2388 C   0  0  0  0  0  0  0  0  0  0  0  0
  -19.6506   20.9215   38.1389 O   0  0  0  0  0  0  0  0  0  0  0  0
  -16.0345   20.9174   38.4325 N   0  0  0  0  0  0  0  0  0  0  0  0
  -15.0290   20.6810   39.2943 C   0  0  0  0  0  0  0  0  0  0  0  0
  -15.2064   19.6303   40.1085 O   0  0  0  0  0  0  0  0  0  0  0  0
  -13.7572   21.3363   39.5752 C   0  0  2  0  0  0  0  0  0  0  0  0
  -12.7700   21.4567   38.4548 C   0  0  0  0  0  0  0  0  0  0  0  0
  -13.2066   22.2483   37.2906 C   0  0  0  0  0  0  0  0  0  0  0  0
  -12.1969   22.3796   36.1584 C   0  0  0  0  0  0  0  0  0  0  0  0
  -11.9364   21.2051   35.4533 N   0  0  0  0  0  0  0  0  0  0  0  0
  -11.1695   20.7435   34.4333 C   0  0  0  0  0  0  0  0  0  0  0  0
  -11.1362   19.4620   33.8904 N   0  0  0  0  0  0  0  0  0  0  0  0
  -10.3479   21.7503   33.8821 N   0  0  0  0  0  0  0  0  0  0  0  0
  -13.1380   20.9479   40.8403 N   0  0  0  0  0  0  0  0  0  0  0  0
  -14.1681   21.0477   41.9623 C   0  0  0  0  0  0  0  0  0  0  0  0
  -15.2486   21.3435   41.6617 O   0  0  0  0  0  0  0  0  0  0  0  0
  -13.5061   20.7100   43.2709 C   0  0  2  0  0  0  0  0  0  0  0  0
  -12.2346   20.0634   43.1443 C   0  0  0  0  0  0  0  0  0  0  0  0
  -11.9796   18.7524   42.5814 C   0  0  0  0  0  0  0  0  0  0  0  0
  -12.3344   17.5424   43.4501 C   0  0  0  0  0  0  0  0  0  0  0  0
  -11.4669   17.7134   44.6161 N   0  0  0  0  0  0  0  0  0  0  0  0
  -11.2540   16.6089   45.5381 C   0  0  0  0  0  0  0  0  0  0  0  0
  -10.4263   16.9181   46.6949 N   0  0  0  0  0  0  0  0  0  0  0  0
  -11.7747   15.4945   45.3632 N   0  0  0  0  0  0  0  0  0  0  0  0
  -14.5335   20.1702   44.1344 N   0  0  0  0  0  0  0  0  0  0  0  0
  -14.9080   20.7091   45.3721 C   0  0  0  0  0  0  0  0  0  0  0  0
  -14.2714   21.7715   45.7238 O   0  0  0  0  0  0  0  0  0  0  0  0
  -15.9128   20.2296   46.3039 C   0  0  0  0  0  0  0  0  0  0  0  0
  -16.6185   18.9805   45.9839 N   0  0  0  0  0  0  0  0  0  0  0  0
  -17.4560   18.5689   47.0935 C   0  0  0  0  0  0  0  0  0  0  0  0
  -17.5185   19.2088   48.1539 O   0  0  0  0  0  0  0  0  0  0  0  0
  -18.2656   17.3219   47.0313 C   0  0  1  0  0  0  0  0  0  0  0  0
  -18.5772   16.8534   45.7500 N   0  0  0  0  0  0  0  0  0  0  0  0
  -19.2064   15.6533   45.3220 C   0  0  0  0  0  0  0  0  0  0  0  0
  -19.5561   14.8182   46.1534 O   0  0  0  0  0  0  0  0  0  0  0  0
  -19.4395   15.3895   43.9043 C   0  0  2  0  0  0  0  0  0  0  0  0
  -20.7898   16.0165   43.4595 C   0  0  0  0  0  0  0  0  0  0  0  0
  -20.8911   15.7802   41.9488 C   0  0  0  0  0  0  0  0  0  0  0  0
  -19.8575   16.6132   41.2351 C   0  0  0  0  0  0  0  0  0  0  0  0
  -20.0631   18.0014   41.2737 N   0  0  0  0  0  0  0  0  0  0  0  0
  -21.0888   18.7133   40.5207 C   0  0  0  0  0  0  0  0  0  0  0  0
  -21.2798   20.1267   40.6889 N   0  0  0  0  0  0  0  0  0  0  0  0
  -21.8676   17.9868   39.7589 N   0  0  0  0  0  0  0  0  0  0  0  0
  -19.7770   13.9279   43.8116 N   0  0  0  0  0  0  0  0  0  0  0  0
  -19.2488   13.1405   42.8144 C   0  0  0  0  0  0  0  0  0  0  0  0
  -18.4382   13.7549   41.9891 O   0  0  0  0  0  0  0  0  0  0  0  0
  -19.4441   11.7251   42.4882 C   0  0  0  0  0  0  0  0  0  0  0  0
  -18.8345   11.5225   41.1644 N   0  0  0  0  0  0  0  0  0  0  0  0
  -18.7769   10.2825   40.4742 C   0  0  0  0  0  0  0  0  0  0  0  0
  -19.2553    9.2851   41.0191 O   0  0  0  0  0  0  0  0  0  0  0  0
  -18.1220   10.3187   39.1313 C   0  0  2  0  0  0  0  0  0  0  0  0
  -16.6199    9.8904   39.3589 C   0  0  0  0  0  0  0  0  0  0  0  0
  -16.6525    8.7198   40.0644 O   0  0  0  0  0  0  0  0  0  0  0  0
  -18.1168   11.5402   38.4649 N   0  0  0  0  0  0  0  0  0  0  0  0
  -18.1029   11.8180   37.0491 C   0  0  0  0  0  0  0  0  0  0  0  0
  -18.0422   10.8894   36.2176 O   0  0  0  0  0  0  0  0  0  0  0  0
  -18.1850   13.2733   36.7568 C   0  0  2  0  0  0  0  0  0  0  0  0
  -19.4893   13.7780   37.4265 C   0  0  0  0  0  0  0  0  0  0  0  0
  -18.0634   13.6754   35.3920 N   0  0  0  0  0  0  0  0  0  0  0  0
  -16.5787   13.8492   35.0427 C   0  0  0  0  0  0  0  0  0  0  0  0
  -15.8056   13.6162   35.8462 O   0  0  0  0  0  0  0  0  0  0  0  0
  -16.4672   14.3215   33.5788 C   0  0  1  0  0  0  0  0  0  0  0  0
  -15.1318   13.9607   33.2001 N   0  0  0  0  0  0  0  0  0  0  0  0
  -13.8849   14.4913   33.4060 C   0  0  0  0  0  0  0  0  0  0  0  0
  -13.9524   15.6679   34.0953 O   0  0  0  0  0  0  0  0  0  0  0  0
  -12.5714   14.0772   33.0334 C   0  0  2  0  0  0  0  0  0  0  0  0
  -12.2215   12.6678   33.4667 C   0  0  0  0  0  0  0  0  0  0  0  0
  -13.1230   11.5954   33.0134 C   0  0  0  0  0  0  0  0  0  0  0  0
  -14.1152   11.1704   33.9434 C   0  0  0  0  0  0  0  0  0  0  0  0
  -14.8690   10.1924   33.5112 C   0  0  0  0  0  0  0  0  0  0  0  0
  -14.8474    9.5404   32.2873 C   0  0  0  0  0  0  0  0  0  0  0  0
  -13.8999    9.9655   31.4112 C   0  0  0  0  0  0  0  0  0  0  0  0
  -12.9579   11.0546   31.7601 C   0  0  0  0  0  0  0  0  0  0  0  0
  -11.4708   14.9760   33.5030 N   0  0  0  0  0  0  0  0  0  0  0  0
  -11.2805   15.0646   34.9784 C   0  0  0  0  0  0  0  0  0  0  0  0
  -12.0437   14.4366   35.6314 O   0  0  0  0  0  0  0  0  0  0  0  0
  -10.1309   15.9244   35.3510 C   0  0  2  0  0  0  0  0  0  0  0  0
   -8.7642   15.2738   35.1423 C   0  0  0  0  0  0  0  0  0  0  0  0
   -8.3064   14.7263   33.9274 C   0  0  0  0  0  0  0  0  0  0  0  0
   -6.9386   14.6582   33.8842 O   0  0  0  0  0  0  0  0  0  0  0  0
   -8.7737   14.2316   32.7686 O   0  0  0  0  0  0  0  0  0  0  0  0
  -10.2505   15.9449   36.8417 N   0  0  0  0  0  0  0  0  0  0  0  0
  -10.1956   17.0282   37.7488 C   0  0  0  0  0  0  0  0  0  0  0  0
  -10.0348   18.1548   37.3234 O   0  0  0  0  0  0  0  0  0  0  0  0
  -10.3452   16.6022   39.1753 C   0  0  2  0  0  0  0  0  0  0  0  0
   -8.8433   16.1668   39.5707 C   0  0  0  0  0  0  0  0  0  0  0  0
  -11.0432   15.3367   39.2121 N   0  0  0  0  0  0  0  0  0  0  0  0
  -10.9324   14.3095   40.1473 C   0  0  0  0  0  0  0  0  0  0  0  0
  -10.1650   14.3731   41.1361 O   0  0  0  0  0  0  0  0  0  0  0  0
  -11.7992   13.0819   39.8953 C   0  0  2  0  0  0  0  0  0  0  0  0
  -13.2493   13.3383   39.9204 C   0  0  0  0  0  0  0  0  0  0  0  0
  -13.8758   13.8760   41.1579 C   0  0  0  0  0  0  0  0  0  0  0  0
  -14.2047   12.9461   42.1368 C   0  0  0  0  0  0  0  0  0  0  0  0
  -14.8867   13.3644   43.2244 C   0  0  0  0  0  0  0  0  0  0  0  0
  -15.2129   14.7087   43.2918 C   0  0  0  0  0  0  0  0  0  0  0  0
  -15.9351   15.2206   44.3709 O   0  0  0  0  0  0  0  0  0  0  0  0
  -14.8977   15.6364   42.3316 C   0  0  0  0  0  0  0  0  0  0  0  0
  -14.1972   15.1892   41.2229 C   0  0  0  0  0  0  0  0  0  0  0  0
  -11.3420   12.0695   40.8521 N   0  0  0  0  0  0  0  0  0  0  0  0
  -10.5467   11.0679   40.3649 C   0  0  0  0  0  0  0  0  0  0  0  0
  -10.2632   11.1119   39.0874 O   0  0  0  0  0  0  0  0  0  0  0  0
   -9.9257    9.9023   41.0475 C   0  0  1  0  0  0  0  0  0  0  0  0
  -10.3420    9.9434   42.4391 N   0  0  0  0  0  0  0  0  0  0  0  0
   -9.4241   10.6314   43.3230 C   0  0  0  0  0  0  0  0  0  0  0  0
   -8.3662   11.1595   42.8443 O   0  0  0  0  0  0  0  0  0  0  0  0
   -9.6847   10.7503   44.8048 C   0  0  1  0  0  0  0  0  0  0  0  0
   -8.4495   11.4075   45.2876 N   0  0  0  0  0  0  0  0  0  0  0  0
  -10.8266   11.7171   45.0060 C   0  0  1  0  0  0  0  0  0  0  0  0
  -12.1389   10.9235   44.8582 C   0  0  0  0  0  0  0  0  0  0  0  0
  -10.7948   12.1289   46.3645 O   0  0  0  0  0  0  0  0  0  0  0  0
  -10.3539    8.7106   40.2746 C   0  0  1  0  0  0  0  0  0  0  0  0
   -9.8472    7.4105   40.8178 C   0  0  0  0  0  0  0  0  0  0  0  0
  -11.7522    8.6227   40.1734 O   0  0  0  0  0  0  0  0  0  0  0  0
  -17.5717   13.8765   32.7208 C   0  0  1  0  0  0  0  0  0  0  0  0
  -17.3342   14.3497   31.2528 C   0  0  0  0  0  0  0  0  0  0  0  0
  -17.7528   12.3959   32.7135 C   0  0  0  0  0  0  0  0  0  0  0  0
  -18.9305   11.9013   31.9043 C   0  0  0  0  0  0  0  0  0  0  0  0
  -17.6045   16.2906   47.9748 C   0  0  1  0  0  0  0  0  0  0  0  0
  -18.5553   15.4100   48.6523 C   0  0  0  0  0  0  0  0  0  0  0  0
  -16.4364   15.7721   47.4802 O   0  0  0  0  0  0  0  0  0  0  0  0
  -18.7322   19.5268   31.8474 C   0  0  0  0  0  0  0  0  0  0  0  0
  -17.9811   18.8192   31.1603 O   0  0  0  0  0  0  0  0  0  0  0  0
  -19.9395   19.5568   30.7546 O   0  0  0  0  0  0  0  0  0  0  0  0
  1  2  1  0
  2  3  1  0
  3  4  1  6
  3  5  1  0
  5  6  1  1
  6  7  1  0
  7  8  2  0
  7  9  1  0
  9 10  1  1
  9 11  1  0
 11 12  1  0
 12 13  2  0
 12 14  1  0
 14 15  1  6
 15 16  1  0
 14 17  1  0
 17 18  1  0
 18 19  2  0
 18 20  1  0
 20 21  1  6
 21 22  1  0
 22 23  1  0
 23 24  1  0
 24 25  1  0
 25 26  1  0
 25 27  2  0
 20 28  1  0
 28 29  1  0
 29 30  2  0
 29 31  1  0
 31 32  1  6
 32 33  1  0
 33 34  1  0
 34 35  1  0
 35 36  1  0
 36 37  1  0
 36 38  2  0
 31 39  1  0
 39 40  1  0
 40 41  2  0
 40 42  1  0
 42 43  1  0
 43 44  1  0
 44 45  2  0
 44 46  1  0
 46 47  1  6
 47 48  1  0
 48 49  2  0
 48 50  1  0
 50 51  1  1
 51 52  1  0
 52 53  1  0
 53 54  1  0
 54 55  1  0
 55 56  1  0
 55 57  2  0
 50 58  1  0
 58 59  1  0
 59 60  2  0
 59 61  1  0
 61 62  1  0
 62 63  1  0
 63 64  2  0
 63 65  1  0
 65 66  1  1
 66 67  1  0
 65 68  1  0
 68 69  1  0
 69 70  2  0
 69 71  1  0
 71 72  1  6
 71 73  1  0
 73 74  1  0
 74 75  2  0
 74 76  1  0
 76 77  1  6
 77 78  1  0
 78 79  2  0
 78 80  1  0
 80 81  1  1
 81 82  1  0
 82 83  2  0
 83 84  1  0
 84 85  2  0
 85 86  1  0
 86 87  2  0
 80 88  1  0
 88 89  1  0
 89 90  2  0
 89 91  1  0
 91 92  1  1
 92 93  1  0
 93 94  2  0
 93 95  1  0
 91 96  1  0
 96 97  1  0
 97 98  2  0
 97 99  1  0
 99100  1  6
 99101  1  0
101102  1  0
102103  2  0
102104  1  0
104105  1  1
105106  1  0
106107  2  0
107108  1  0
108109  2  0
109110  1  0
109111  1  0
111112  2  0
104113  1  0
113114  1  0
114115  2  0
114116  1  0
116117  1  1
117118  1  0
118119  2  0
118120  1  0
120121  1  1
120122  1  0
122123  1  1
122124  1  0
116125  1  0
125126  1  1
125127  1  0
 76128  1  0
128129  1  6
128130  1  0
130131  1  0
 46132  1  0
132133  1  6
132134  1  0
  5135  1  0
135136  2  0
135137  1  0
 87 82  1  0
112106  1  0
M  CHG  6  27   1  38   1  57   1  95  -1 121   1 137  -1
M  END
>  <shape_align_shape_tanimoto>  (2) 
0.17149166026336116

>  <shape_align_color_tanimoto>  (2) 
0.031297545932626632

>  <metric>  (2) 
color

>  <metric_score>  (2) 
0.031

>  <template_pid>  (2) 
6EM7

>  <template_shape_score>  (2) 
0.171

>  <template_color_score>  (2) 
0.031

>  <template_combo_score>  (2) 
0.101

$$$$
6EM7_combo_pose
     RDKit          3D

137138  0  0  0  0  0  0  0  0999 V2000
  -17.3985   10.8351   36.8610 C   0  0  0  0  0  0  0  0  0  0  0  0
  -17.6634   12.3077   37.1049 C   0  0  0  0  0  0  0  0  0  0  0  0
  -17.0418   13.1361   35.9926 C   0  0  2  0  0  0  0  0  0  0  0  0
  -15.5510   12.8348   36.0701 C   0  0  0  0  0  0  0  0  0  0  0  0
  -17.2199   14.6047   36.1266 C   0  0  2  0  0  0  0  0  0  0  0  0
  -18.5925   15.0415   36.1580 N   0  0  0  0  0  0  0  0  0  0  0  0
  -19.0192   16.2046   36.8869 C   0  0  0  0  0  0  0  0  0  0  0  0
  -18.2291   16.9282   37.5447 O   0  0  0  0  0  0  0  0  0  0  0  0
  -20.4739   16.5322   36.8270 C   0  0  2  0  0  0  0  0  0  0  0  0
  -20.9149   16.3982   35.4025 C   0  0  0  0  0  0  0  0  0  0  0  0
  -20.7806   17.8099   37.4064 N   0  0  0  0  0  0  0  0  0  0  0  0
  -21.7340   17.9668   38.4914 C   0  0  0  0  0  0  0  0  0  0  0  0
  -22.2292   16.8804   38.8678 O   0  0  0  0  0  0  0  0  0  0  0  0
  -22.0640   19.3111   39.0621 C   0  0  2  0  0  0  0  0  0  0  0  0
  -20.8740   20.1120   39.4834 C   0  0  0  0  0  0  0  0  0  0  0  0
  -19.8692   20.1088   38.5451 O   0  0  0  0  0  0  0  0  0  0  0  0
  -23.1061   19.3262   40.0314 N   0  0  0  0  0  0  0  0  0  0  0  0
  -23.4138   18.4388   41.0583 C   0  0  0  0  0  0  0  0  0  0  0  0
  -22.6768   17.4559   41.2530 O   0  0  0  0  0  0  0  0  0  0  0  0
  -24.6364   18.7119   41.8918 C   0  0  2  0  0  0  0  0  0  0  0  0
  -25.5011   19.7947   41.4083 C   0  0  0  0  0  0  0  0  0  0  0  0
  -26.1828   19.6058   40.0768 C   0  0  0  0  0  0  0  0  0  0  0  0
  -27.2093   18.4746   40.1143 C   0  0  0  0  0  0  0  0  0  0  0  0
  -28.2302   18.7212   41.0922 N   0  0  0  0  0  0  0  0  0  0  0  0
  -29.2160   19.7216   41.0547 C   0  0  0  0  0  0  0  0  0  0  0  0
  -30.1506   19.7486   42.1763 N   0  0  0  0  0  0  0  0  0  0  0  0
  -29.3751   20.5839   40.1381 N   0  0  0  0  0  0  0  0  0  0  0  0
  -24.6273   18.4249   43.2636 N   0  0  0  0  0  0  0  0  0  0  0  0
  -24.0490   17.4006   44.0233 C   0  0  0  0  0  0  0  0  0  0  0  0
  -23.3729   16.5359   43.4553 O   0  0  0  0  0  0  0  0  0  0  0  0
  -24.1992   17.2542   45.5198 C   0  0  2  0  0  0  0  0  0  0  0  0
  -24.6338   18.5189   46.1531 C   0  0  0  0  0  0  0  0  0  0  0  0
  -23.7031   19.6778   45.9934 C   0  0  0  0  0  0  0  0  0  0  0  0
  -24.3558   20.8825   46.6461 C   0  0  0  0  0  0  0  0  0  0  0  0
  -23.5044   22.0410   46.5583 N   0  0  0  0  0  0  0  0  0  0  0  0
  -23.9695   23.2892   47.1000 C   0  0  0  0  0  0  0  0  0  0  0  0
  -23.1167   24.4063   46.9882 N   0  0  0  0  0  0  0  0  0  0  0  0
  -25.1290   23.3701   47.6574 N   0  0  0  0  0  0  0  0  0  0  0  0
  -23.1385   16.5447   46.1418 N   0  0  0  0  0  0  0  0  0  0  0  0
  -22.9497   15.1372   46.1891 C   0  0  0  0  0  0  0  0  0  0  0  0
  -23.7541   14.3217   45.6101 O   0  0  0  0  0  0  0  0  0  0  0  0
  -21.7573   14.6437   46.9429 C   0  0  0  0  0  0  0  0  0  0  0  0
  -21.5920   13.2107   46.8373 N   0  0  0  0  0  0  0  0  0  0  0  0
  -20.5720   12.5029   47.4842 C   0  0  0  0  0  0  0  0  0  0  0  0
  -19.7732   13.1547   48.2284 O   0  0  0  0  0  0  0  0  0  0  0  0
  -20.3167   11.0489   47.3787 C   0  0  1  0  0  0  0  0  0  0  0  0
  -19.1359   10.6945   48.2051 N   0  0  0  0  0  0  0  0  0  0  0  0
  -17.8476   10.7866   47.6770 C   0  0  0  0  0  0  0  0  0  0  0  0
  -17.6378   11.1564   46.5086 O   0  0  0  0  0  0  0  0  0  0  0  0
  -16.7242   10.4311   48.6210 C   0  0  2  0  0  0  0  0  0  0  0  0
  -16.9093   11.2549   49.8939 C   0  0  0  0  0  0  0  0  0  0  0  0
  -15.9644   10.7970   50.9451 C   0  0  0  0  0  0  0  0  0  0  0  0
  -15.9791   11.5944   52.2377 C   0  0  0  0  0  0  0  0  0  0  0  0
  -17.2995   11.6339   52.8325 N   0  0  0  0  0  0  0  0  0  0  0  0
  -17.3926   12.2993   54.0998 C   0  0  0  0  0  0  0  0  0  0  0  0
  -18.6095   12.4630   54.8134 N   0  0  0  0  0  0  0  0  0  0  0  0
  -16.3004   12.7734   54.5803 N   0  0  0  0  0  0  0  0  0  0  0  0
  -15.5209   10.9298   47.9074 N   0  0  0  0  0  0  0  0  0  0  0  0
  -14.1922   10.6112   48.0833 C   0  0  0  0  0  0  0  0  0  0  0  0
  -13.7582    9.7831   48.8949 O   0  0  0  0  0  0  0  0  0  0  0  0
  -13.1839   11.3438   47.2453 C   0  0  0  0  0  0  0  0  0  0  0  0
  -11.8511   11.1454   47.7819 N   0  0  0  0  0  0  0  0  0  0  0  0
  -10.8261   11.8469   47.0773 C   0  0  0  0  0  0  0  0  0  0  0  0
  -11.2082   12.5005   46.0659 O   0  0  0  0  0  0  0  0  0  0  0  0
   -9.3871   11.8351   47.5097 C   0  0  2  0  0  0  0  0  0  0  0  0
   -9.2857   11.9722   48.9896 C   0  0  0  0  0  0  0  0  0  0  0  0
   -9.8856   13.2131   49.3690 O   0  0  0  0  0  0  0  0  0  0  0  0
   -8.7085   12.8555   46.7795 N   0  0  0  0  0  0  0  0  0  0  0  0
   -8.2267   12.8132   45.4663 C   0  0  0  0  0  0  0  0  0  0  0  0
   -8.3819   11.7843   44.7421 O   0  0  0  0  0  0  0  0  0  0  0  0
   -7.5047   13.9838   44.8511 C   0  0  2  0  0  0  0  0  0  0  0  0
   -7.9216   15.2542   45.4491 C   0  0  0  0  0  0  0  0  0  0  0  0
   -7.4699   13.8849   43.4175 N   0  0  0  0  0  0  0  0  0  0  0  0
   -6.4842   13.2720   42.6282 C   0  0  0  0  0  0  0  0  0  0  0  0
   -5.4874   12.7322   43.2240 O   0  0  0  0  0  0  0  0  0  0  0  0
   -6.5202   13.2061   41.1272 C   0  0  1  0  0  0  0  0  0  0  0  0
   -7.5497   13.9749   40.5212 N   0  0  0  0  0  0  0  0  0  0  0  0
   -8.9197   13.7347   40.4276 C   0  0  0  0  0  0  0  0  0  0  0  0
   -9.3509   12.6879   40.9722 O   0  0  0  0  0  0  0  0  0  0  0  0
   -9.8834   14.6682   39.7155 C   0  0  2  0  0  0  0  0  0  0  0  0
   -9.2733   15.9823   39.4361 C   0  0  0  0  0  0  0  0  0  0  0  0
  -10.2188   16.8843   38.7635 C   0  0  0  0  0  0  0  0  0  0  0  0
  -10.4086   16.9900   37.4026 C   0  0  0  0  0  0  0  0  0  0  0  0
  -11.2950   17.8803   36.8216 C   0  0  0  0  0  0  0  0  0  0  0  0
  -12.0467   18.7180   37.6105 C   0  0  0  0  0  0  0  0  0  0  0  0
  -11.8552   18.6112   38.9673 C   0  0  0  0  0  0  0  0  0  0  0  0
  -10.9711   17.7256   39.5607 C   0  0  0  0  0  0  0  0  0  0  0  0
  -11.1903   14.6591   40.2635 N   0  0  0  0  0  0  0  0  0  0  0  0
  -12.2514   13.7395   40.0562 C   0  0  0  0  0  0  0  0  0  0  0  0
  -12.0973   12.7986   39.2817 O   0  0  0  0  0  0  0  0  0  0  0  0
  -13.4959   14.0019   40.8533 C   0  0  2  0  0  0  0  0  0  0  0  0
  -13.1029   14.6538   42.1607 C   0  0  0  0  0  0  0  0  0  0  0  0
  -12.1418   13.7768   42.8638 C   0  0  0  0  0  0  0  0  0  0  0  0
  -11.8481   12.6205   42.6009 O   0  0  0  0  0  0  0  0  0  0  0  0
  -11.5052   14.4111   43.9590 O   0  0  0  0  0  0  0  0  0  0  0  0
  -14.3102   12.8771   41.1071 N   0  0  0  0  0  0  0  0  0  0  0  0
  -15.7174   12.7869   40.8539 C   0  0  0  0  0  0  0  0  0  0  0  0
  -16.3846   13.6921   40.3531 O   0  0  0  0  0  0  0  0  0  0  0  0
  -16.3002   11.4490   41.2830 C   0  0  2  0  0  0  0  0  0  0  0  0
  -15.6412   10.3347   40.5679 C   0  0  0  0  0  0  0  0  0  0  0  0
  -17.7216   11.4269   41.1058 N   0  0  0  0  0  0  0  0  0  0  0  0
  -18.4793   12.3347   41.9501 C   0  0  0  0  0  0  0  0  0  0  0  0
  -17.7088   13.0556   42.6636 O   0  0  0  0  0  0  0  0  0  0  0  0
  -19.9156   12.3831   41.9526 C   0  0  2  0  0  0  0  0  0  0  0  0
  -20.5191   12.7192   43.3118 C   0  0  0  0  0  0  0  0  0  0  0  0
  -20.0035   14.0593   43.6969 C   0  0  0  0  0  0  0  0  0  0  0  0
  -19.0144   14.2795   44.6187 C   0  0  0  0  0  0  0  0  0  0  0  0
  -18.5798   15.5638   44.8211 C   0  0  0  0  0  0  0  0  0  0  0  0
  -19.1063   16.6627   44.1212 C   0  0  0  0  0  0  0  0  0  0  0  0
  -18.6041   17.9116   44.3828 O   0  0  0  0  0  0  0  0  0  0  0  0
  -20.1162   16.4219   43.1799 C   0  0  0  0  0  0  0  0  0  0  0  0
  -20.5349   15.1387   42.9985 C   0  0  0  0  0  0  0  0  0  0  0  0
  -20.5993   11.2611   41.3584 N   0  0  0  0  0  0  0  0  0  0  0  0
  -21.9006   11.3176   40.7757 C   0  0  0  0  0  0  0  0  0  0  0  0
  -22.5788   12.4031   40.7337 O   0  0  0  0  0  0  0  0  0  0  0  0
  -22.4388   10.0426   40.2314 C   0  0  1  0  0  0  0  0  0  0  0  0
  -23.8809   10.0928   40.0247 N   0  0  0  0  0  0  0  0  0  0  0  0
  -24.7035    9.7839   41.1413 C   0  0  0  0  0  0  0  0  0  0  0  0
  -24.1053    9.5113   42.2275 O   0  0  0  0  0  0  0  0  0  0  0  0
  -26.1488    9.7724   41.0566 C   0  0  1  0  0  0  0  0  0  0  0  0
  -26.6949    9.6212   42.4222 N   0  0  0  0  0  0  0  0  0  0  0  0
  -26.7931   10.9639   40.3856 C   0  0  1  0  0  0  0  0  0  0  0  0
  -28.2852   10.7012   40.3657 C   0  0  0  0  0  0  0  0  0  0  0  0
  -26.5930   12.1311   41.0808 O   0  0  0  0  0  0  0  0  0  0  0  0
  -21.7381    9.5047   39.0364 C   0  0  1  0  0  0  0  0  0  0  0  0
  -22.0354   10.2922   37.7659 C   0  0  0  0  0  0  0  0  0  0  0  0
  -20.3602    9.5100   39.2756 O   0  0  0  0  0  0  0  0  0  0  0  0
   -5.1894   13.4677   40.4803 C   0  0  1  0  0  0  0  0  0  0  0  0
   -4.6082   14.8208   40.8176 C   0  0  0  0  0  0  0  0  0  0  0  0
   -4.1942   12.3577   40.5736 C   0  0  0  0  0  0  0  0  0  0  0  0
   -2.9240   12.8512   39.8553 C   0  0  0  0  0  0  0  0  0  0  0  0
  -21.4278   10.1572   47.8105 C   0  0  1  0  0  0  0  0  0  0  0  0
  -22.7550   10.3558   47.1601 C   0  0  0  0  0  0  0  0  0  0  0  0
  -21.0841    8.7964   47.6203 O   0  0  0  0  0  0  0  0  0  0  0  0
  -16.5939   15.1643   34.8338 C   0  0  0  0  0  0  0  0  0  0  0  0
  -16.3893   14.4434   33.8469 O   0  0  0  0  0  0  0  0  0  0  0  0
  -16.2657   16.4963   34.7832 O   0  0  0  0  0  0  0  0  0  0  0  0
  1  2  1  0
  2  3  1  0
  3  4  1  1
  3  5  1  0
  5  6  1  6
  6  7  1  0
  7  8  2  0
  7  9  1  0
  9 10  1  6
  9 11  1  0
 11 12  1  0
 12 13  2  0
 12 14  1  0
 14 15  1  1
 15 16  1  0
 14 17  1  0
 17 18  1  0
 18 19  2  0
 18 20  1  0
 20 21  1  1
 21 22  1  0
 22 23  1  0
 23 24  1  0
 24 25  1  0
 25 26  1  0
 25 27  2  0
 20 28  1  0
 28 29  1  0
 29 30  2  0
 29 31  1  0
 31 32  1  1
 32 33  1  0
 33 34  1  0
 34 35  1  0
 35 36  1  0
 36 37  1  0
 36 38  2  0
 31 39  1  0
 39 40  1  0
 40 41  2  0
 40 42  1  0
 42 43  1  0
 43 44  1  0
 44 45  2  0
 44 46  1  0
 46 47  1  1
 47 48  1  0
 48 49  2  0
 48 50  1  0
 50 51  1  1
 51 52  1  0
 52 53  1  0
 53 54  1  0
 54 55  1  0
 55 56  1  0
 55 57  2  0
 50 58  1  0
 58 59  1  0
 59 60  2  0
 59 61  1  0
 61 62  1  0
 62 63  1  0
 63 64  2  0
 63 65  1  0
 65 66  1  1
 66 67  1  0
 65 68  1  0
 68 69  1  0
 69 70  2  0
 69 71  1  0
 71 72  1  6
 71 73  1  0
 73 74  1  0
 74 75  2  0
 74 76  1  0
 76 77  1  6
 77 78  1  0
 78 79  2  0
 78 80  1  0
 80 81  1  1
 81 82  1  0
 82 83  2  0
 83 84  1  0
 84 85  2  0
 85 86  1  0
 86 87  2  0
 80 88  1  0
 88 89  1  0
 89 90  2  0
 89 91  1  0
 91 92  1  1
 92 93  1  0
 93 94  2  0
 93 95  1  0
 91 96  1  0
 96 97  1  0
 97 98  2  0
 97 99  1  0
 99100  1  6
 99101  1  0
101102  1  0
102103  2  0
102104  1  0
104105  1  1
105106  1  0
106107  2  0
107108  1  0
108109  2  0
109110  1  0
109111  1  0
111112  2  0
104113  1  0
113114  1  0
114115  2  0
114116  1  0
116117  1  6
117118  1  0
118119  2  0
118120  1  0
120121  1  1
120122  1  0
122123  1  1
122124  1  0
116125  1  0
125126  1  6
125127  1  0
 76128  1  0
128129  1  1
128130  1  0
130131  1  0
 46132  1  0
132133  1  6
132134  1  0
  5135  1  0
135136  2  0
135137  1  0
 87 82  1  0
112106  1  0
M  CHG  6  27   1  38   1  57   1  95  -1 121   1 137  -1
M  END
>  <shape_align_shape_tanimoto>  (3) 
0.19723551438759476

>  <shape_align_color_tanimoto>  (3) 
0.0068399153632225989

>  <metric>  (3) 
combo

>  <metric_score>  (3) 
0.102

>  <template_pid>  (3) 
6EM7

>  <template_shape_score>  (3) 
0.197

>  <template_color_score>  (3) 
0.007

>  <template_combo_score>  (3) 
0.102

$$$$
