3G2U_shape_pose
     RDKit          3D

 57 56  0  0  0  0  0  0  0  0999 V2000
   45.3677  -11.0213   18.0188 C   0  0  0  0  0  0  0  0  0  0  0  0
   46.3010  -10.3244   17.1236 C   0  0  0  0  0  0  0  0  0  0  0  0
   46.2957   -8.8072   17.3501 C   0  0  0  0  0  0  0  0  0  0  0  0
   46.2460  -10.6791   15.7051 C   0  0  0  0  0  0  0  0  0  0  0  0
   44.9995  -10.4987   14.9251 C   0  0  2  0  0  0  0  0  0  0  0  0
   43.8378  -11.2395   15.2132 N   0  0  0  0  0  0  0  0  0  0  0  0
   43.7808  -12.5929   15.6917 C   0  0  0  0  0  0  0  0  0  0  0  0
   44.8473  -13.2277   15.8739 O   0  0  0  0  0  0  0  0  0  0  0  0
   42.5118  -13.2837   15.9894 C   0  0  2  0  0  0  0  0  0  0  0  0
   42.4214  -14.7236   15.6806 C   0  0  0  0  0  0  0  0  0  0  0  0
   43.3736  -15.6263   16.3937 C   0  0  0  0  0  0  0  0  0  0  0  0
   43.1207  -17.0930   15.9519 C   0  0  0  0  0  0  0  0  0  0  0  0
   43.1842  -15.6453   17.8950 C   0  0  0  0  0  0  0  0  0  0  0  0
   41.3966  -12.4756   15.5163 N   0  0  0  0  0  0  0  0  0  0  0  0
   41.2250  -12.3827   14.1270 C   0  0  0  0  0  0  0  0  0  0  0  0
   42.0895  -13.0344   13.4292 O   0  0  0  0  0  0  0  0  0  0  0  0
   40.2212  -11.6687   13.3511 C   0  0  2  0  0  0  0  0  0  0  0  0
   38.8660  -11.4768   13.8974 C   0  0  0  0  0  0  0  0  0  0  0  0
   38.7742  -10.6443   15.1140 C   0  0  0  0  0  0  0  0  0  0  0  0
   39.6636   -9.8438   15.5050 O   0  0  0  0  0  0  0  0  0  0  0  0
   37.6356  -10.7179   15.9220 O   0  0  0  0  0  0  0  0  0  0  0  0
   40.3189  -12.1201   11.9747 N   0  0  0  0  0  0  0  0  0  0  0  0
   39.9972  -13.4792   11.7215 C   0  0  0  0  0  0  0  0  0  0  0  0
   39.6523  -14.1466   12.7577 O   0  0  0  0  0  0  0  0  0  0  0  0
   40.0266  -14.1806   10.4511 C   0  0  2  0  0  0  0  0  0  0  0  0
   38.9534  -13.9736    9.4433 C   0  0  0  0  0  0  0  0  0  0  0  0
   38.7131  -12.5961    8.9399 C   0  0  0  0  0  0  0  0  0  0  0  0
   38.1935  -11.6801    9.9585 C   0  0  0  0  0  0  0  0  0  0  0  0
   38.4605  -10.4414    9.9613 O   0  0  0  0  0  0  0  0  0  0  0  0
   37.3689  -12.2562   10.9451 O   0  0  0  0  0  0  0  0  0  0  0  0
   40.0173  -15.6518   10.8006 N   0  0  0  0  0  0  0  0  0  0  0  0
   38.9190  -16.2600   11.3972 C   0  0  0  0  0  0  0  0  0  0  0  0
   37.8280  -15.6531   11.6989 O   0  0  0  0  0  0  0  0  0  0  0  0
   38.8908  -17.7264   11.7632 C   0  0  2  0  0  0  0  0  0  0  0  0
   39.1663  -18.6089   10.5723 C   0  0  0  0  0  0  0  0  0  0  0  0
   39.1176  -20.0181   11.0597 C   0  0  0  0  0  0  0  0  0  0  0  0
   39.8120  -20.3650   12.0530 O   0  0  0  0  0  0  0  0  0  0  0  0
   38.2986  -20.9803   10.4239 O   0  0  0  0  0  0  0  0  0  0  0  0
   37.5765  -18.0029   12.3290 N   0  0  0  0  0  0  0  0  0  0  0  0
   37.3872  -18.3736   13.6968 C   0  0  0  0  0  0  0  0  0  0  0  0
   38.3534  -18.4761   14.4838 O   0  0  0  0  0  0  0  0  0  0  0  0
   35.9702  -18.6300   14.1310 C   0  0  1  0  0  0  0  0  0  0  0  0
   35.9660  -18.8979   15.5484 N   0  0  0  0  0  0  0  0  0  0  0  0
   35.1966  -17.3434   13.8993 C   0  0  0  0  0  0  0  0  0  0  0  0
   33.8829  -17.4638   14.3508 O   0  0  0  0  0  0  0  0  0  0  0  0
   45.2976  -10.1482   13.5301 C   0  0  0  0  0  0  0  0  0  0  0  0
   46.4817   -9.7047   13.3120 O   0  0  0  0  0  0  0  0  0  0  0  0
   44.3769  -10.2641   12.4477 N   0  0  0  0  0  0  0  0  0  0  0  0
   44.6192   -9.9672   11.0868 C   0  0  1  0  0  0  0  0  0  0  0  0
   43.9649   -8.8315   10.4147 C   0  0  0  0  0  0  0  0  0  0  0  0
   42.4976   -8.7279   10.3460 C   0  0  0  0  0  0  0  0  0  0  0  0
   41.7560   -8.5246   11.5880 C   0  0  0  0  0  0  0  0  0  0  0  0
   42.2080   -8.3394   12.7330 O   0  0  0  0  0  0  0  0  0  0  0  0
   40.3456   -8.5345   11.4769 O   0  0  0  0  0  0  0  0  0  0  0  0
   46.1478   -9.6185   10.9506 C   0  0  0  0  0  0  0  0  0  0  0  0
   46.9624  -10.5776   11.0042 O   0  0  0  0  0  0  0  0  0  0  0  0
   46.5111   -8.2987   10.7826 O   0  0  0  0  0  0  0  0  0  0  0  0
  1  2  1  0
  2  3  1  0
  2  4  1  0
  5  4  1  6
  5  6  1  0
  6  7  1  0
  7  8  2  0
  7  9  1  0
  9 10  1  6
 10 11  1  0
 11 12  1  0
 11 13  1  0
  9 14  1  0
 14 15  1  0
 15 16  2  0
 15 17  1  0
 17 18  1  1
 18 19  1  0
 19 20  2  0
 19 21  1  0
 17 22  1  0
 22 23  1  0
 23 24  2  0
 23 25  1  0
 25 26  1  6
 26 27  1  0
 27 28  1  0
 28 29  2  0
 28 30  1  0
 25 31  1  0
 31 32  1  0
 32 33  2  0
 32 34  1  0
 34 35  1  6
 35 36  1  0
 36 37  2  0
 36 38  1  0
 34 39  1  0
 39 40  1  0
 40 41  2  0
 40 42  1  0
 42 43  1  1
 42 44  1  0
 44 45  1  0
  5 46  1  0
 46 47  2  0
 46 48  1  0
 48 49  1  0
 49 50  1  1
 50 51  1  0
 51 52  1  0
 52 53  2  0
 52 54  1  0
 49 55  1  0
 55 56  2  0
 55 57  1  0
M  CHG  6  21  -1  30  -1  38  -1  43   1  54  -1  57  -1
M  END
>  <shape_align_shape_tanimoto>  (1) 
0.37985207003472082

>  <shape_align_color_tanimoto>  (1) 
0.018702774476446533

>  <metric>  (1) 
shape

>  <metric_score>  (1) 
0.380

>  <template_pid>  (1) 
3G2U

>  <template_shape_score>  (1) 
0.380

>  <template_color_score>  (1) 
0.019

>  <template_combo_score>  (1) 
0.199

$$$$
3G2U_color_pose
     RDKit          3D

 57 56  0  0  0  0  0  0  0  0999 V2000
   42.1433  -18.5113   10.6656 C   0  0  0  0  0  0  0  0  0  0  0  0
   42.2413  -17.3590    9.6882 C   0  0  0  0  0  0  0  0  0  0  0  0
   43.3380  -17.7691    8.6998 C   0  0  0  0  0  0  0  0  0  0  0  0
   40.9252  -17.1824    9.0015 C   0  0  0  0  0  0  0  0  0  0  0  0
   39.7643  -16.8839    9.8716 C   0  0  2  0  0  0  0  0  0  0  0  0
   39.8608  -15.7043   10.6623 N   0  0  0  0  0  0  0  0  0  0  0  0
   38.7987  -14.7972   10.9337 C   0  0  0  0  0  0  0  0  0  0  0  0
   37.6768  -15.0336   10.4644 O   0  0  0  0  0  0  0  0  0  0  0  0
   39.0026  -13.5868   11.7638 C   0  0  2  0  0  0  0  0  0  0  0  0
   38.2808  -12.3748   11.3463 C   0  0  0  0  0  0  0  0  0  0  0  0
   38.5171  -11.7715   10.0283 C   0  0  0  0  0  0  0  0  0  0  0  0
   39.9403  -11.3287    9.8006 C   0  0  0  0  0  0  0  0  0  0  0  0
   37.9774  -12.5310    8.8373 C   0  0  0  0  0  0  0  0  0  0  0  0
   40.4212  -13.4599   11.9573 N   0  0  0  0  0  0  0  0  0  0  0  0
   41.0792  -13.4540   13.2208 C   0  0  0  0  0  0  0  0  0  0  0  0
   40.3591  -13.5726   14.2283 O   0  0  0  0  0  0  0  0  0  0  0  0
   42.5440  -13.3055   13.2132 C   0  0  2  0  0  0  0  0  0  0  0  0
   42.9697  -12.1160   14.0553 C   0  0  0  0  0  0  0  0  0  0  0  0
   42.5845  -12.2284   15.4726 C   0  0  0  0  0  0  0  0  0  0  0  0
   42.6883  -11.1937   16.1819 O   0  0  0  0  0  0  0  0  0  0  0  0
   42.1216  -13.3760   16.0868 O   0  0  0  0  0  0  0  0  0  0  0  0
   43.1432  -13.2376   11.8955 N   0  0  0  0  0  0  0  0  0  0  0  0
   44.1523  -14.1134   11.4765 C   0  0  0  0  0  0  0  0  0  0  0  0
   44.5218  -14.9979   12.3432 O   0  0  0  0  0  0  0  0  0  0  0  0
   44.8407  -14.1561   10.1944 C   0  0  2  0  0  0  0  0  0  0  0  0
   46.3640  -13.9356   10.3835 C   0  0  0  0  0  0  0  0  0  0  0  0
   46.6346  -12.5936   11.0253 C   0  0  0  0  0  0  0  0  0  0  0  0
   48.1221  -12.4584   11.1688 C   0  0  0  0  0  0  0  0  0  0  0  0
   48.5354  -11.3782   11.6894 O   0  0  0  0  0  0  0  0  0  0  0  0
   48.9941  -13.4628   10.7517 O   0  0  0  0  0  0  0  0  0  0  0  0
   44.4225  -13.1784    9.2171 N   0  0  0  0  0  0  0  0  0  0  0  0
   44.1582  -13.6368    7.9106 C   0  0  0  0  0  0  0  0  0  0  0  0
   44.2765  -14.8701    7.6183 O   0  0  0  0  0  0  0  0  0  0  0  0
   43.7296  -12.7567    6.7768 C   0  0  2  0  0  0  0  0  0  0  0  0
   42.4812  -12.0028    7.1247 C   0  0  0  0  0  0  0  0  0  0  0  0
   42.0660  -11.1284    6.0146 C   0  0  0  0  0  0  0  0  0  0  0  0
   42.6301  -10.9647    4.9317 O   0  0  0  0  0  0  0  0  0  0  0  0
   40.8794  -10.3906    6.2218 O   0  0  0  0  0  0  0  0  0  0  0  0
   43.4811  -13.5554    5.5974 N   0  0  0  0  0  0  0  0  0  0  0  0
   44.1546  -13.4406    4.3664 C   0  0  0  0  0  0  0  0  0  0  0  0
   45.0774  -12.6062    4.1329 O   0  0  0  0  0  0  0  0  0  0  0  0
   43.7902  -14.3415    3.2376 C   0  0  1  0  0  0  0  0  0  0  0  0
   42.8705  -15.3786    3.6219 N   0  0  0  0  0  0  0  0  0  0  0  0
   43.1252  -13.4947    2.1717 C   0  0  0  0  0  0  0  0  0  0  0  0
   41.9579  -12.9472    2.6822 O   0  0  0  0  0  0  0  0  0  0  0  0
   39.2274  -18.0669   10.6217 C   0  0  0  0  0  0  0  0  0  0  0  0
   39.1843  -19.1497    9.9477 O   0  0  0  0  0  0  0  0  0  0  0  0
   38.7948  -18.0104   11.9627 N   0  0  0  0  0  0  0  0  0  0  0  0
   38.2795  -19.1790   12.6304 C   0  0  1  0  0  0  0  0  0  0  0  0
   39.1157  -19.6033   13.7833 C   0  0  0  0  0  0  0  0  0  0  0  0
   39.3219  -18.6443   14.8897 C   0  0  0  0  0  0  0  0  0  0  0  0
   38.1253  -18.1745   15.5839 C   0  0  0  0  0  0  0  0  0  0  0  0
   37.5336  -17.0866   15.3747 O   0  0  0  0  0  0  0  0  0  0  0  0
   37.5500  -18.9832   16.5858 O   0  0  0  0  0  0  0  0  0  0  0  0
   36.8281  -19.1551   12.8767 C   0  0  0  0  0  0  0  0  0  0  0  0
   36.2461  -20.2701   13.0700 O   0  0  0  0  0  0  0  0  0  0  0  0
   36.0450  -18.0158   12.9114 O   0  0  0  0  0  0  0  0  0  0  0  0
  1  2  1  0
  2  3  1  0
  2  4  1  0
  5  4  1  1
  5  6  1  0
  6  7  1  0
  7  8  2  0
  7  9  1  0
  9 10  1  6
 10 11  1  0
 11 12  1  0
 11 13  1  0
  9 14  1  0
 14 15  1  0
 15 16  2  0
 15 17  1  0
 17 18  1  1
 18 19  1  0
 19 20  2  0
 19 21  1  0
 17 22  1  0
 22 23  1  0
 23 24  2  0
 23 25  1  0
 25 26  1  1
 26 27  1  0
 27 28  1  0
 28 29  2  0
 28 30  1  0
 25 31  1  0
 31 32  1  0
 32 33  2  0
 32 34  1  0
 34 35  1  1
 35 36  1  0
 36 37  2  0
 36 38  1  0
 34 39  1  0
 39 40  1  0
 40 41  2  0
 40 42  1  0
 42 43  1  1
 42 44  1  0
 44 45  1  0
  5 46  1  0
 46 47  2  0
 46 48  1  0
 48 49  1  0
 49 50  1  1
 50 51  1  0
 51 52  1  0
 52 53  2  0
 52 54  1  0
 49 55  1  0
 55 56  2  0
 55 57  1  0
M  CHG  6  21  -1  30  -1  38  -1  43   1  54  -1  57  -1
M  END
>  <shape_align_shape_tanimoto>  (2) 
0.32674896732663011

>  <shape_align_color_tanimoto>  (2) 
0.065257726358582888

>  <metric>  (2) 
color

>  <metric_score>  (2) 
0.065

>  <template_pid>  (2) 
3G2U

>  <template_shape_score>  (2) 
0.327

>  <template_color_score>  (2) 
0.065

>  <template_combo_score>  (2) 
0.196

$$$$
3G2U_combo_pose
     RDKit          3D

 57 56  0  0  0  0  0  0  0  0999 V2000
   36.2298  -20.5065   13.5586 C   0  0  0  0  0  0  0  0  0  0  0  0
   37.3175  -19.4284   13.5232 C   0  0  0  0  0  0  0  0  0  0  0  0
   37.3415  -18.8470   14.9340 C   0  0  0  0  0  0  0  0  0  0  0  0
   38.6511  -20.0350   13.2284 C   0  0  0  0  0  0  0  0  0  0  0  0
   39.7090  -18.9231   13.1879 C   0  0  2  0  0  0  0  0  0  0  0  0
   39.5018  -17.9634   12.1648 N   0  0  0  0  0  0  0  0  0  0  0  0
   38.8185  -18.1315   10.9387 C   0  0  0  0  0  0  0  0  0  0  0  0
   38.2914  -19.2252   10.5701 O   0  0  0  0  0  0  0  0  0  0  0  0
   38.6605  -17.0049    9.9563 C   0  0  2  0  0  0  0  0  0  0  0  0
   39.4084  -17.2197    8.6815 C   0  0  0  0  0  0  0  0  0  0  0  0
   39.0361  -18.4253    7.8911 C   0  0  0  0  0  0  0  0  0  0  0  0
   39.9379  -18.4101    6.6439 C   0  0  0  0  0  0  0  0  0  0  0  0
   37.6272  -18.2652    7.3366 C   0  0  0  0  0  0  0  0  0  0  0  0
   39.2069  -15.7781   10.5338 N   0  0  0  0  0  0  0  0  0  0  0  0
   38.3116  -14.6834   10.6418 C   0  0  0  0  0  0  0  0  0  0  0  0
   37.1147  -14.7977   10.2425 O   0  0  0  0  0  0  0  0  0  0  0  0
   38.6854  -13.3629   11.2099 C   0  0  2  0  0  0  0  0  0  0  0  0
   38.3350  -12.2381   10.2606 C   0  0  0  0  0  0  0  0  0  0  0  0
   39.0256  -12.3623    8.9669 C   0  0  0  0  0  0  0  0  0  0  0  0
   39.8112  -13.2975    8.6805 O   0  0  0  0  0  0  0  0  0  0  0  0
   38.7871  -11.3806    8.0110 O   0  0  0  0  0  0  0  0  0  0  0  0
   40.0293  -13.2817   11.6857 N   0  0  0  0  0  0  0  0  0  0  0  0
   40.2495  -13.1664   13.0857 C   0  0  0  0  0  0  0  0  0  0  0  0
   39.2536  -13.1394   13.8929 O   0  0  0  0  0  0  0  0  0  0  0  0
   41.5793  -13.0711   13.7124 C   0  0  2  0  0  0  0  0  0  0  0  0
   41.6742  -11.8275   14.5646 C   0  0  0  0  0  0  0  0  0  0  0  0
   42.9955  -11.6424   15.2418 C   0  0  0  0  0  0  0  0  0  0  0  0
   43.3675  -12.7092   16.1835 C   0  0  0  0  0  0  0  0  0  0  0  0
   42.6704  -13.7135   16.4615 O   0  0  0  0  0  0  0  0  0  0  0  0
   44.6178  -12.5757   16.8193 O   0  0  0  0  0  0  0  0  0  0  0  0
   42.6835  -13.0868   12.7802 N   0  0  0  0  0  0  0  0  0  0  0  0
   43.0569  -12.0263   11.9421 C   0  0  0  0  0  0  0  0  0  0  0  0
   42.3200  -10.9746   12.0163 O   0  0  0  0  0  0  0  0  0  0  0  0
   44.1631  -11.9415   10.9868 C   0  0  2  0  0  0  0  0  0  0  0  0
   45.5242  -11.6661   11.5466 C   0  0  0  0  0  0  0  0  0  0  0  0
   46.1011  -12.6252   12.4669 C   0  0  0  0  0  0  0  0  0  0  0  0
   45.7114  -13.7406   12.8138 O   0  0  0  0  0  0  0  0  0  0  0  0
   47.3278  -12.2184   13.0828 O   0  0  0  0  0  0  0  0  0  0  0  0
   43.8287  -10.7933   10.0830 N   0  0  0  0  0  0  0  0  0  0  0  0
   43.8375  -11.0186    8.6689 C   0  0  0  0  0  0  0  0  0  0  0  0
   44.1219  -12.1585    8.1904 O   0  0  0  0  0  0  0  0  0  0  0  0
   43.5122   -9.9054    7.7635 C   0  0  1  0  0  0  0  0  0  0  0  0
   43.6931  -10.3079    6.3707 N   0  0  0  0  0  0  0  0  0  0  0  0
   42.0347   -9.5096    7.8831 C   0  0  0  0  0  0  0  0  0  0  0  0
   41.7333   -8.4644    7.0338 O   0  0  0  0  0  0  0  0  0  0  0  0
   41.0680  -19.4086   13.3987 C   0  0  0  0  0  0  0  0  0  0  0  0
   41.3893  -20.2129   14.3338 O   0  0  0  0  0  0  0  0  0  0  0  0
   42.1023  -18.9903   12.5436 N   0  0  0  0  0  0  0  0  0  0  0  0
   43.4894  -19.4258   12.6794 C   0  0  1  0  0  0  0  0  0  0  0  0
   43.9368  -20.1735   11.4439 C   0  0  0  0  0  0  0  0  0  0  0  0
   45.3147  -20.7126   11.6180 C   0  0  0  0  0  0  0  0  0  0  0  0
   46.4160  -19.8129   11.8490 C   0  0  0  0  0  0  0  0  0  0  0  0
   47.0597  -19.3705   10.8324 O   0  0  0  0  0  0  0  0  0  0  0  0
   46.8567  -19.3702   13.1107 O   0  0  0  0  0  0  0  0  0  0  0  0
   44.2722  -18.1405   12.7276 C   0  0  0  0  0  0  0  0  0  0  0  0
   44.8160  -17.6254   11.7282 O   0  0  0  0  0  0  0  0  0  0  0  0
   44.4049  -17.4813   13.9427 O   0  0  0  0  0  0  0  0  0  0  0  0
  1  2  1  0
  2  3  1  0
  2  4  1  0
  5  4  1  6
  5  6  1  0
  6  7  1  0
  7  8  2  0
  7  9  1  0
  9 10  1  6
 10 11  1  0
 11 12  1  0
 11 13  1  0
  9 14  1  0
 14 15  1  0
 15 16  2  0
 15 17  1  0
 17 18  1  6
 18 19  1  0
 19 20  2  0
 19 21  1  0
 17 22  1  0
 22 23  1  0
 23 24  2  0
 23 25  1  0
 25 26  1  6
 26 27  1  0
 27 28  1  0
 28 29  2  0
 28 30  1  0
 25 31  1  0
 31 32  1  0
 32 33  2  0
 32 34  1  0
 34 35  1  1
 35 36  1  0
 36 37  2  0
 36 38  1  0
 34 39  1  0
 39 40  1  0
 40 41  2  0
 40 42  1  0
 42 43  1  6
 42 44  1  0
 44 45  1  0
  5 46  1  0
 46 47  2  0
 46 48  1  0
 48 49  1  0
 49 50  1  6
 50 51  1  0
 51 52  1  0
 52 53  2  0
 52 54  1  0
 49 55  1  0
 55 56  2  0
 55 57  1  0
M  CHG  6  21  -1  30  -1  38  -1  43   1  54  -1  57  -1
M  END
>  <shape_align_shape_tanimoto>  (3) 
0.34778795028321297

>  <shape_align_color_tanimoto>  (3) 
0.055632414306007745

>  <metric>  (3) 
combo

>  <metric_score>  (3) 
0.202

>  <template_pid>  (3) 
3G2U

>  <template_shape_score>  (3) 
0.348

>  <template_color_score>  (3) 
0.056

>  <template_combo_score>  (3) 
0.202

$$$$
