3ZCZ_shape_pose
     RDKit          3D

 20 19  0  0  0  0  0  0  0  0999 V2000
  -24.2752   40.4070   61.2817 C   0  0  0  0  0  0  0  0  0  0  0  0
  -25.7741   40.5248   61.4876 C   0  0  1  0  0  0  0  0  0  0  0  0
  -26.3958   41.4274   60.5819 N   0  0  0  0  0  0  0  0  0  0  0  0
  -27.0004   42.6595   60.9542 C   0  0  0  0  0  0  0  0  0  0  0  0
  -27.0051   43.0034   62.1597 O   0  0  0  0  0  0  0  0  0  0  0  0
  -27.6094   43.4965   59.8655 C   0  0  0  0  0  0  0  0  0  0  0  0
  -28.1985   44.7698   60.3572 C   0  0  0  0  0  0  0  0  0  0  0  0
  -29.2538   44.7767   61.3629 C   0  0  0  0  0  0  0  0  0  0  0  0
  -30.5753   44.2308   61.2559 C   0  0  0  0  0  0  0  0  0  0  0  0
  -31.0106   42.8741   61.0432 C   0  0  1  0  0  0  0  0  0  0  0  0
  -30.6629   42.1629   59.8494 N   0  0  0  0  0  0  0  0  0  0  0  0
  -30.8020   41.9384   62.1929 C   0  0  0  0  0  0  0  0  0  0  0  0
  -29.9648   42.1565   63.1030 O   0  0  0  0  0  0  0  0  0  0  0  0
  -31.5457   40.7599   62.3023 O   0  0  0  0  0  0  0  0  0  0  0  0
  -26.3182   39.1373   61.5256 C   0  0  2  0  0  0  0  0  0  0  0  0
  -26.2352   38.4852   60.2985 O   0  0  0  0  0  0  0  0  0  0  0  0
  -27.6606   38.9850   62.1704 C   0  0  0  0  0  0  0  0  0  0  0  0
  -27.9856   37.6310   62.1053 F   0  0  0  0  0  0  0  0  0  0  0  0
  -28.6635   39.6536   61.5483 F   0  0  0  0  0  0  0  0  0  0  0  0
  -27.6406   39.3154   63.5032 F   0  0  0  0  0  0  0  0  0  0  0  0
  2  1  1  6
  2  3  1  0
  3  4  1  0
  4  5  2  0
  4  6  1  0
  6  7  1  0
  7  8  1  0
  8  9  1  0
  9 10  1  0
 10 11  1  6
 10 12  1  0
 12 13  2  0
 12 14  1  0
  2 15  1  0
 15 16  1  6
 15 17  1  0
 17 18  1  0
 17 19  1  0
 17 20  1  0
M  CHG  2  11   1  14  -1
M  END
>  <shape_align_shape_tanimoto>  (1) 
0.70682012443256514

>  <shape_align_color_tanimoto>  (1) 
0.094910352192376909

>  <metric>  (1) 
shape

>  <metric_score>  (1) 
0.707

>  <template_pid>  (1) 
3ZCZ

>  <template_shape_score>  (1) 
0.707

>  <template_color_score>  (1) 
0.095

>  <template_combo_score>  (1) 
0.401

$$$$
3ZCZ_color_pose
     RDKit          3D

 20 19  0  0  0  0  0  0  0  0999 V2000
  -24.0810   40.7396   60.6675 C   0  0  0  0  0  0  0  0  0  0  0  0
  -25.3598   40.7547   61.4776 C   0  0  1  0  0  0  0  0  0  0  0  0
  -26.4228   41.3397   60.7113 N   0  0  0  0  0  0  0  0  0  0  0  0
  -27.0092   42.6152   61.0378 C   0  0  0  0  0  0  0  0  0  0  0  0
  -26.5845   43.2349   62.0152 O   0  0  0  0  0  0  0  0  0  0  0  0
  -28.1117   43.0889   60.1385 C   0  0  0  0  0  0  0  0  0  0  0  0
  -28.6524   44.3827   60.5751 C   0  0  0  0  0  0  0  0  0  0  0  0
  -29.2449   44.5711   61.8886 C   0  0  0  0  0  0  0  0  0  0  0  0
  -30.4816   44.0022   62.4093 C   0  0  0  0  0  0  0  0  0  0  0  0
  -30.7382   42.5387   62.4533 C   0  0  1  0  0  0  0  0  0  0  0  0
  -32.0382   42.3808   63.1747 N   0  0  0  0  0  0  0  0  0  0  0  0
  -31.1645   42.0317   61.0734 C   0  0  0  0  0  0  0  0  0  0  0  0
  -31.3084   40.7872   60.9328 O   0  0  0  0  0  0  0  0  0  0  0  0
  -31.3862   42.8866   60.0287 O   0  0  0  0  0  0  0  0  0  0  0  0
  -25.6663   39.4723   62.1405 C   0  0  2  0  0  0  0  0  0  0  0  0
  -24.5484   38.9872   62.8667 O   0  0  0  0  0  0  0  0  0  0  0  0
  -26.0300   38.3419   61.2096 C   0  0  0  0  0  0  0  0  0  0  0  0
  -27.1136   38.5382   60.4288 F   0  0  0  0  0  0  0  0  0  0  0  0
  -26.2775   37.2348   62.0299 F   0  0  0  0  0  0  0  0  0  0  0  0
  -24.9627   37.9932   60.4057 F   0  0  0  0  0  0  0  0  0  0  0  0
  2  1  1  6
  2  3  1  0
  3  4  1  0
  4  5  2  0
  4  6  1  0
  6  7  1  0
  7  8  1  0
  8  9  1  0
  9 10  1  0
 10 11  1  1
 10 12  1  0
 12 13  2  0
 12 14  1  0
  2 15  1  0
 15 16  1  6
 15 17  1  0
 17 18  1  0
 17 19  1  0
 17 20  1  0
M  CHG  2  11   1  14  -1
M  END
>  <shape_align_shape_tanimoto>  (2) 
0.56660607949000663

>  <shape_align_color_tanimoto>  (2) 
0.12976780454959394

>  <metric>  (2) 
color

>  <metric_score>  (2) 
0.130

>  <template_pid>  (2) 
3ZCZ

>  <template_shape_score>  (2) 
0.567

>  <template_color_score>  (2) 
0.130

>  <template_combo_score>  (2) 
0.348

$$$$
3ZCZ_combo_pose
     RDKit          3D

 20 19  0  0  0  0  0  0  0  0999 V2000
  -24.2752   40.4070   61.2817 C   0  0  0  0  0  0  0  0  0  0  0  0
  -25.7741   40.5248   61.4876 C   0  0  1  0  0  0  0  0  0  0  0  0
  -26.3958   41.4274   60.5819 N   0  0  0  0  0  0  0  0  0  0  0  0
  -27.0004   42.6595   60.9542 C   0  0  0  0  0  0  0  0  0  0  0  0
  -27.0051   43.0034   62.1597 O   0  0  0  0  0  0  0  0  0  0  0  0
  -27.6094   43.4965   59.8655 C   0  0  0  0  0  0  0  0  0  0  0  0
  -28.1985   44.7698   60.3572 C   0  0  0  0  0  0  0  0  0  0  0  0
  -29.2538   44.7767   61.3629 C   0  0  0  0  0  0  0  0  0  0  0  0
  -30.5753   44.2308   61.2559 C   0  0  0  0  0  0  0  0  0  0  0  0
  -31.0106   42.8741   61.0432 C   0  0  1  0  0  0  0  0  0  0  0  0
  -30.6629   42.1629   59.8494 N   0  0  0  0  0  0  0  0  0  0  0  0
  -30.8020   41.9384   62.1929 C   0  0  0  0  0  0  0  0  0  0  0  0
  -29.9648   42.1565   63.1030 O   0  0  0  0  0  0  0  0  0  0  0  0
  -31.5457   40.7599   62.3023 O   0  0  0  0  0  0  0  0  0  0  0  0
  -26.3182   39.1373   61.5256 C   0  0  2  0  0  0  0  0  0  0  0  0
  -26.2352   38.4852   60.2985 O   0  0  0  0  0  0  0  0  0  0  0  0
  -27.6606   38.9850   62.1704 C   0  0  0  0  0  0  0  0  0  0  0  0
  -27.9856   37.6310   62.1053 F   0  0  0  0  0  0  0  0  0  0  0  0
  -28.6635   39.6536   61.5483 F   0  0  0  0  0  0  0  0  0  0  0  0
  -27.6406   39.3154   63.5032 F   0  0  0  0  0  0  0  0  0  0  0  0
  2  1  1  6
  2  3  1  0
  3  4  1  0
  4  5  2  0
  4  6  1  0
  6  7  1  0
  7  8  1  0
  8  9  1  0
  9 10  1  0
 10 11  1  6
 10 12  1  0
 12 13  2  0
 12 14  1  0
  2 15  1  0
 15 16  1  6
 15 17  1  0
 17 18  1  0
 17 19  1  0
 17 20  1  0
M  CHG  2  11   1  14  -1
M  END
>  <shape_align_shape_tanimoto>  (3) 
0.70682012443256514

>  <shape_align_color_tanimoto>  (3) 
0.094910352192376909

>  <metric>  (3) 
combo

>  <metric_score>  (3) 
0.401

>  <template_pid>  (3) 
3ZCZ

>  <template_shape_score>  (3) 
0.707

>  <template_color_score>  (3) 
0.095

>  <template_combo_score>  (3) 
0.401

$$$$
