5NY6_shape_pose
     RDKit          3D

 23 24  0  0  0  0  0  0  0  0999 V2000
   16.9650    7.3546   15.1721 C   0  0  0  0  0  0  0  0  0  0  0  0
   15.6152    6.7600   14.7802 C   0  0  2  0  0  0  0  0  0  0  0  0
   15.7816    5.3195   14.8395 N   0  0  0  0  0  0  0  0  0  0  0  0
   15.1420    4.5098   15.8076 C   0  0  0  0  0  0  0  0  0  0  0  0
   14.3907    5.0378   16.6662 O   0  0  0  0  0  0  0  0  0  0  0  0
   15.3151    3.0604   15.8598 C   0  0  0  0  0  0  0  0  0  0  0  0
   14.6433    2.3685   16.8468 C   0  0  0  0  0  0  0  0  0  0  0  0
   14.7371    0.9882   16.9872 C   0  0  0  0  0  0  0  0  0  0  0  0
   15.5348    0.2921   16.1008 C   0  0  0  0  0  0  0  0  0  0  0  0
   15.6755   -1.4514   16.2497 Cl  0  0  0  0  0  0  0  0  0  0  0  0
   16.2084    0.9970   15.1091 C   0  0  0  0  0  0  0  0  0  0  0  0
   17.2017    0.0275   14.0249 S   0  0  0  0  0  0  0  0  0  0  0  0
   17.9432    1.0917   12.8788 N   0  0  0  0  0  0  0  0  0  0  0  0
   16.3920   -1.0432   13.3552 O   0  0  0  0  0  0  0  0  0  0  0  0
   18.3009   -0.5488   14.8847 O   0  0  0  0  0  0  0  0  0  0  0  0
   16.1057    2.3635   14.9827 C   0  0  0  0  0  0  0  0  0  0  0  0
   15.1492    7.2397   13.4660 C   0  0  0  0  0  0  0  0  0  0  0  0
   15.4466    6.6053   12.2764 C   0  0  0  0  0  0  0  0  0  0  0  0
   14.9842    7.0954   11.0599 C   0  0  0  0  0  0  0  0  0  0  0  0
   14.2057    8.2489   11.0393 C   0  0  0  0  0  0  0  0  0  0  0  0
   13.8916    8.9085   12.2310 C   0  0  0  0  0  0  0  0  0  0  0  0
   14.3685    8.3959   13.4422 C   0  0  0  0  0  0  0  0  0  0  0  0
   14.0519    9.0535   14.5987 O   0  0  0  0  0  0  0  0  0  0  0  0
  2  1  1  6
  2  3  1  0
  3  4  1  0
  4  5  2  0
  4  6  1  0
  6  7  2  0
  7  8  1  0
  8  9  2  0
  9 10  1  0
  9 11  1  0
 11 12  1  0
 12 13  1  0
 12 14  2  0
 12 15  2  0
 11 16  2  0
  2 17  1  0
 17 18  2  0
 18 19  1  0
 19 20  2  0
 20 21  1  0
 21 22  2  0
 22 23  1  0
 16  6  1  0
 22 17  1  0
M  END
>  <shape_align_shape_tanimoto>  (1) 
0.49426277881454128

>  <shape_align_color_tanimoto>  (1) 
0.02422392883110434

>  <metric>  (1) 
shape

>  <metric_score>  (1) 
0.494

>  <template_pid>  (1) 
5NY6

>  <template_shape_score>  (1) 
0.494

>  <template_color_score>  (1) 
0.024

>  <template_combo_score>  (1) 
0.259

$$$$
5NY6_color_pose
     RDKit          3D

 23 24  0  0  0  0  0  0  0  0999 V2000
   20.5606   -0.8787   12.1936 C   0  0  0  0  0  0  0  0  0  0  0  0
   19.2238   -0.3976   11.6736 C   0  0  2  0  0  0  0  0  0  0  0  0
   18.2930   -0.2905   12.7775 N   0  0  0  0  0  0  0  0  0  0  0  0
   17.7647    0.9529   13.2226 C   0  0  0  0  0  0  0  0  0  0  0  0
   18.1698    1.9797   12.5774 O   0  0  0  0  0  0  0  0  0  0  0  0
   16.8268    1.0691   14.3337 C   0  0  0  0  0  0  0  0  0  0  0  0
   16.3669   -0.0135   15.0534 C   0  0  0  0  0  0  0  0  0  0  0  0
   15.4680    0.1911   16.1040 C   0  0  0  0  0  0  0  0  0  0  0  0
   15.0330    1.4762   16.4303 C   0  0  0  0  0  0  0  0  0  0  0  0
   13.9070    1.7173   17.7485 Cl  0  0  0  0  0  0  0  0  0  0  0  0
   15.5032    2.5480   15.6997 C   0  0  0  0  0  0  0  0  0  0  0  0
   14.9741    4.1754   16.0867 S   0  0  0  0  0  0  0  0  0  0  0  0
   13.2420    4.1991   15.8955 N   0  0  0  0  0  0  0  0  0  0  0  0
   15.3389    4.4811   17.5110 O   0  0  0  0  0  0  0  0  0  0  0  0
   15.5427    5.1468   15.1183 O   0  0  0  0  0  0  0  0  0  0  0  0
   16.3832    2.3251   14.6748 C   0  0  0  0  0  0  0  0  0  0  0  0
   18.7353   -1.2018   10.5508 C   0  0  0  0  0  0  0  0  0  0  0  0
   17.9396   -2.3181   10.7791 C   0  0  0  0  0  0  0  0  0  0  0  0
   17.4511   -3.1103    9.7848 C   0  0  0  0  0  0  0  0  0  0  0  0
   17.7581   -2.7955    8.4662 C   0  0  0  0  0  0  0  0  0  0  0  0
   18.5442   -1.6966    8.1977 C   0  0  0  0  0  0  0  0  0  0  0  0
   19.0184   -0.9219    9.2247 C   0  0  0  0  0  0  0  0  0  0  0  0
   19.8172    0.1929    8.9341 O   0  0  0  0  0  0  0  0  0  0  0  0
  2  1  1  1
  2  3  1  0
  3  4  1  0
  4  5  2  0
  4  6  1  0
  6  7  2  0
  7  8  1  0
  8  9  2  0
  9 10  1  0
  9 11  1  0
 11 12  1  0
 12 13  1  0
 12 14  2  0
 12 15  2  0
 11 16  2  0
  2 17  1  0
 17 18  2  0
 18 19  1  0
 19 20  2  0
 20 21  1  0
 21 22  2  0
 22 23  1  0
 16  6  1  0
 22 17  1  0
M  END
>  <shape_align_shape_tanimoto>  (2) 
0.4695648641782707

>  <shape_align_color_tanimoto>  (2) 
0.13119919304071689

>  <metric>  (2) 
color

>  <metric_score>  (2) 
0.131

>  <template_pid>  (2) 
5NY6

>  <template_shape_score>  (2) 
0.470

>  <template_color_score>  (2) 
0.131

>  <template_combo_score>  (2) 
0.300

$$$$
5NY6_combo_pose
     RDKit          3D

 23 24  0  0  0  0  0  0  0  0999 V2000
   20.5606   -0.8787   12.1936 C   0  0  0  0  0  0  0  0  0  0  0  0
   19.2238   -0.3976   11.6736 C   0  0  2  0  0  0  0  0  0  0  0  0
   18.2930   -0.2905   12.7775 N   0  0  0  0  0  0  0  0  0  0  0  0
   17.7647    0.9529   13.2226 C   0  0  0  0  0  0  0  0  0  0  0  0
   18.1698    1.9797   12.5774 O   0  0  0  0  0  0  0  0  0  0  0  0
   16.8268    1.0691   14.3337 C   0  0  0  0  0  0  0  0  0  0  0  0
   16.3669   -0.0135   15.0534 C   0  0  0  0  0  0  0  0  0  0  0  0
   15.4680    0.1911   16.1040 C   0  0  0  0  0  0  0  0  0  0  0  0
   15.0330    1.4762   16.4303 C   0  0  0  0  0  0  0  0  0  0  0  0
   13.9070    1.7173   17.7485 Cl  0  0  0  0  0  0  0  0  0  0  0  0
   15.5032    2.5480   15.6997 C   0  0  0  0  0  0  0  0  0  0  0  0
   14.9741    4.1754   16.0867 S   0  0  0  0  0  0  0  0  0  0  0  0
   13.2420    4.1991   15.8955 N   0  0  0  0  0  0  0  0  0  0  0  0
   15.3389    4.4811   17.5110 O   0  0  0  0  0  0  0  0  0  0  0  0
   15.5427    5.1468   15.1183 O   0  0  0  0  0  0  0  0  0  0  0  0
   16.3832    2.3251   14.6748 C   0  0  0  0  0  0  0  0  0  0  0  0
   18.7353   -1.2018   10.5508 C   0  0  0  0  0  0  0  0  0  0  0  0
   17.9396   -2.3181   10.7791 C   0  0  0  0  0  0  0  0  0  0  0  0
   17.4511   -3.1103    9.7848 C   0  0  0  0  0  0  0  0  0  0  0  0
   17.7581   -2.7955    8.4662 C   0  0  0  0  0  0  0  0  0  0  0  0
   18.5442   -1.6966    8.1977 C   0  0  0  0  0  0  0  0  0  0  0  0
   19.0184   -0.9219    9.2247 C   0  0  0  0  0  0  0  0  0  0  0  0
   19.8172    0.1929    8.9341 O   0  0  0  0  0  0  0  0  0  0  0  0
  2  1  1  1
  2  3  1  0
  3  4  1  0
  4  5  2  0
  4  6  1  0
  6  7  2  0
  7  8  1  0
  8  9  2  0
  9 10  1  0
  9 11  1  0
 11 12  1  0
 12 13  1  0
 12 14  2  0
 12 15  2  0
 11 16  2  0
  2 17  1  0
 17 18  2  0
 18 19  1  0
 19 20  2  0
 20 21  1  0
 21 22  2  0
 22 23  1  0
 16  6  1  0
 22 17  1  0
M  END
>  <shape_align_shape_tanimoto>  (3) 
0.4695648641782707

>  <shape_align_color_tanimoto>  (3) 
0.13119919304071689

>  <metric>  (3) 
combo

>  <metric_score>  (3) 
0.300

>  <template_pid>  (3) 
5NY6

>  <template_shape_score>  (3) 
0.470

>  <template_color_score>  (3) 
0.131

>  <template_combo_score>  (3) 
0.300

$$$$
