1VCJ_shape_pose
     RDKit          3D

 25 26  0  0  0  0  0  0  0  0999 V2000
   28.2166  -60.3706   18.7905 C   0  0  0  0  0  0  0  0  0  0  0  0
   28.2089  -61.8789   18.9218 C   0  0  0  0  0  0  0  0  0  0  0  0
   28.1500  -62.5847   17.6188 C   0  0  0  0  0  0  0  0  0  0  0  0
   29.2999  -62.2812   16.7009 C   0  0  0  0  0  0  0  0  0  0  0  0
   30.6369  -62.6493   17.2744 C   0  0  0  0  0  0  0  0  0  0  0  0
   26.9203  -62.4394   16.8775 N   0  0  0  0  0  0  0  0  0  0  0  0
   25.6904  -63.0385   17.1789 C   0  0  0  0  0  0  0  0  0  0  0  0
   25.5006  -63.8724   18.2758 C   0  0  0  0  0  0  0  0  0  0  0  0
   24.2868  -64.4459   18.5835 C   0  0  0  0  0  0  0  0  0  0  0  0
   24.1634  -65.3216   19.7678 C   0  0  0  0  0  0  0  0  0  0  0  0
   25.1610  -65.5410   20.4893 O   0  0  0  0  0  0  0  0  0  0  0  0
   22.9375  -65.8935   20.0682 O   0  0  0  0  0  0  0  0  0  0  0  0
   23.1811  -64.2105   17.7948 C   0  0  0  0  0  0  0  0  0  0  0  0
   23.3500  -63.3928   16.7094 C   0  0  0  0  0  0  0  0  0  0  0  0
   24.5828  -62.8077   16.3920 C   0  0  0  0  0  0  0  0  0  0  0  0
   24.5808  -61.9885   15.2316 N   0  0  0  0  0  0  0  0  0  0  0  0
   24.4530  -60.5460   15.2316 C   0  0  0  0  0  0  0  0  0  0  0  0
   24.8468  -59.7651   16.1648 O   0  0  0  0  0  0  0  0  0  0  0  0
   23.7797  -60.1331   13.9485 C   0  0  0  0  0  0  0  0  0  0  0  0
   23.4755  -61.4589   13.3239 C   0  0  0  0  0  0  0  0  0  0  0  0
   24.6425  -62.3374   13.8310 C   0  0  2  0  0  0  0  0  0  0  0  0
   24.2296  -63.7558   13.5816 C   0  0  0  0  0  0  0  0  0  0  0  0
   24.2759  -64.1551   12.2021 N   0  0  0  0  0  0  0  0  0  0  0  0
   25.8190  -61.8799   13.0761 C   0  0  0  0  0  0  0  0  0  0  0  0
   27.0537  -62.3185   13.4498 O   0  0  0  0  0  0  0  0  0  0  0  0
  1  2  1  0
  2  3  1  0
  3  4  1  0
  4  5  1  0
  3  6  1  0
  6  7  1  0
  7  8  2  0
  8  9  1  0
  9 10  1  0
 10 11  2  0
 10 12  1  0
  9 13  2  0
 13 14  1  0
 14 15  2  0
 15 16  1  0
 16 17  1  0
 17 18  2  0
 17 19  1  0
 19 20  1  0
 20 21  1  0
 21 22  1  1
 22 23  1  0
 21 24  1  0
 24 25  1  0
 15  7  1  0
 21 16  1  0
M  CHG  2  12  -1  23   1
M  END
>  <shape_align_shape_tanimoto>  (1) 
0.72234288937966107

>  <shape_align_color_tanimoto>  (1) 
0.063871171978583358

>  <metric>  (1) 
shape

>  <metric_score>  (1) 
0.722

>  <template_pid>  (1) 
1VCJ

>  <template_shape_score>  (1) 
0.722

>  <template_color_score>  (1) 
0.064

>  <template_combo_score>  (1) 
0.393

$$$$
1VCJ_color_pose
     RDKit          3D

 25 26  0  0  0  0  0  0  0  0999 V2000
   29.0800  -64.2515   17.5972 C   0  0  0  0  0  0  0  0  0  0  0  0
   29.2166  -62.9669   16.8809 C   0  0  0  0  0  0  0  0  0  0  0  0
   28.2406  -61.8733   17.2190 C   0  0  0  0  0  0  0  0  0  0  0  0
   28.3631  -61.5345   18.6804 C   0  0  0  0  0  0  0  0  0  0  0  0
   27.3858  -60.4251   19.0946 C   0  0  0  0  0  0  0  0  0  0  0  0
   26.9389  -61.9772   16.6821 N   0  0  0  0  0  0  0  0  0  0  0  0
   25.8506  -62.7746   17.0350 C   0  0  0  0  0  0  0  0  0  0  0  0
   25.7811  -63.6197   18.1198 C   0  0  0  0  0  0  0  0  0  0  0  0
   24.6575  -64.3435   18.4705 C   0  0  0  0  0  0  0  0  0  0  0  0
   24.6780  -65.2253   19.6519 C   0  0  0  0  0  0  0  0  0  0  0  0
   23.6467  -65.8647   19.9409 O   0  0  0  0  0  0  0  0  0  0  0  0
   25.8204  -65.3413   20.4255 O   0  0  0  0  0  0  0  0  0  0  0  0
   23.5201  -64.2488   17.7279 C   0  0  0  0  0  0  0  0  0  0  0  0
   23.5373  -63.4174   16.6327 C   0  0  0  0  0  0  0  0  0  0  0  0
   24.6606  -62.6943   16.2806 C   0  0  0  0  0  0  0  0  0  0  0  0
   24.5501  -61.8702   15.1326 N   0  0  0  0  0  0  0  0  0  0  0  0
   24.2383  -60.4635   15.2601 C   0  0  0  0  0  0  0  0  0  0  0  0
   24.5171  -59.7108   16.2346 O   0  0  0  0  0  0  0  0  0  0  0  0
   23.5199  -59.9908   14.0544 C   0  0  0  0  0  0  0  0  0  0  0  0
   23.9049  -61.0055   13.0383 C   0  0  0  0  0  0  0  0  0  0  0  0
   24.6541  -62.1262   13.7285 C   0  0  2  0  0  0  0  0  0  0  0  0
   23.9674  -63.4031   13.2746 C   0  0  0  0  0  0  0  0  0  0  0  0
   24.4595  -64.5996   13.8566 N   0  0  0  0  0  0  0  0  0  0  0  0
   26.0640  -62.0599   13.1748 C   0  0  0  0  0  0  0  0  0  0  0  0
   26.9377  -62.9625   13.7124 O   0  0  0  0  0  0  0  0  0  0  0  0
  1  2  1  0
  2  3  1  0
  3  4  1  0
  4  5  1  0
  3  6  1  0
  6  7  1  0
  7  8  2  0
  8  9  1  0
  9 10  1  0
 10 11  2  0
 10 12  1  0
  9 13  2  0
 13 14  1  0
 14 15  2  0
 15 16  1  0
 16 17  1  0
 17 18  2  0
 17 19  1  0
 19 20  1  0
 20 21  1  0
 21 22  1  1
 22 23  1  0
 21 24  1  0
 24 25  1  0
 15  7  1  0
 21 16  1  0
M  CHG  2  12  -1  23   1
M  END
>  <shape_align_shape_tanimoto>  (2) 
0.65895354641813442

>  <shape_align_color_tanimoto>  (2) 
0.07003255197105733

>  <metric>  (2) 
color

>  <metric_score>  (2) 
0.070

>  <template_pid>  (2) 
1VCJ

>  <template_shape_score>  (2) 
0.659

>  <template_color_score>  (2) 
0.070

>  <template_combo_score>  (2) 
0.364

$$$$
1VCJ_combo_pose
     RDKit          3D

 25 26  0  0  0  0  0  0  0  0999 V2000
   28.2166  -60.3706   18.7905 C   0  0  0  0  0  0  0  0  0  0  0  0
   28.2089  -61.8789   18.9218 C   0  0  0  0  0  0  0  0  0  0  0  0
   28.1500  -62.5847   17.6188 C   0  0  0  0  0  0  0  0  0  0  0  0
   29.2999  -62.2812   16.7009 C   0  0  0  0  0  0  0  0  0  0  0  0
   30.6369  -62.6493   17.2744 C   0  0  0  0  0  0  0  0  0  0  0  0
   26.9203  -62.4394   16.8775 N   0  0  0  0  0  0  0  0  0  0  0  0
   25.6904  -63.0385   17.1789 C   0  0  0  0  0  0  0  0  0  0  0  0
   25.5006  -63.8724   18.2758 C   0  0  0  0  0  0  0  0  0  0  0  0
   24.2868  -64.4459   18.5835 C   0  0  0  0  0  0  0  0  0  0  0  0
   24.1634  -65.3216   19.7678 C   0  0  0  0  0  0  0  0  0  0  0  0
   25.1610  -65.5410   20.4893 O   0  0  0  0  0  0  0  0  0  0  0  0
   22.9375  -65.8935   20.0682 O   0  0  0  0  0  0  0  0  0  0  0  0
   23.1811  -64.2105   17.7948 C   0  0  0  0  0  0  0  0  0  0  0  0
   23.3500  -63.3928   16.7094 C   0  0  0  0  0  0  0  0  0  0  0  0
   24.5828  -62.8077   16.3920 C   0  0  0  0  0  0  0  0  0  0  0  0
   24.5808  -61.9885   15.2316 N   0  0  0  0  0  0  0  0  0  0  0  0
   24.4530  -60.5460   15.2316 C   0  0  0  0  0  0  0  0  0  0  0  0
   24.8468  -59.7651   16.1648 O   0  0  0  0  0  0  0  0  0  0  0  0
   23.7797  -60.1331   13.9485 C   0  0  0  0  0  0  0  0  0  0  0  0
   23.4755  -61.4589   13.3239 C   0  0  0  0  0  0  0  0  0  0  0  0
   24.6425  -62.3374   13.8310 C   0  0  2  0  0  0  0  0  0  0  0  0
   24.2296  -63.7558   13.5816 C   0  0  0  0  0  0  0  0  0  0  0  0
   24.2759  -64.1551   12.2021 N   0  0  0  0  0  0  0  0  0  0  0  0
   25.8190  -61.8799   13.0761 C   0  0  0  0  0  0  0  0  0  0  0  0
   27.0537  -62.3185   13.4498 O   0  0  0  0  0  0  0  0  0  0  0  0
  1  2  1  0
  2  3  1  0
  3  4  1  0
  4  5  1  0
  3  6  1  0
  6  7  1  0
  7  8  2  0
  8  9  1  0
  9 10  1  0
 10 11  2  0
 10 12  1  0
  9 13  2  0
 13 14  1  0
 14 15  2  0
 15 16  1  0
 16 17  1  0
 17 18  2  0
 17 19  1  0
 19 20  1  0
 20 21  1  0
 21 22  1  1
 22 23  1  0
 21 24  1  0
 24 25  1  0
 15  7  1  0
 21 16  1  0
M  CHG  2  12  -1  23   1
M  END
>  <shape_align_shape_tanimoto>  (3) 
0.72234288937966107

>  <shape_align_color_tanimoto>  (3) 
0.063871171978583358

>  <metric>  (3) 
combo

>  <metric_score>  (3) 
0.393

>  <template_pid>  (3) 
1VCJ

>  <template_shape_score>  (3) 
0.722

>  <template_color_score>  (3) 
0.064

>  <template_combo_score>  (3) 
0.393

$$$$
