5J5T_shape_pose
     RDKit          3D

 26 29  0  0  0  0  0  0  0  0999 V2000
    8.3999   -4.5769  -33.5550 N   0  0  0  0  0  0  0  0  0  0  0  0
    9.6090   -3.7606  -33.5170 C   0  0  0  0  0  0  0  0  0  0  0  0
    9.4602   -2.4295  -33.5910 N   0  0  0  0  0  0  0  0  0  0  0  0
   10.5221   -1.5979  -33.5663 C   0  0  0  0  0  0  0  0  0  0  0  0
   11.7695   -2.1335  -33.4649 C   0  0  0  0  0  0  0  0  0  0  0  0
   13.0011   -1.2887  -33.3623 C   0  0  0  0  0  0  0  0  0  0  0  0
   13.1975    0.0077  -33.2067 C   0  0  0  0  0  0  0  0  0  0  0  0
   14.4671    0.4002  -33.0927 N   0  0  0  0  0  0  0  0  0  0  0  0
   15.4275   -0.2399  -33.1099 C   0  0  0  0  0  0  0  0  0  0  0  0
   16.9402   -0.2838  -33.0322 C   0  0  0  0  0  0  0  0  0  0  0  0
   17.4809   -0.6911  -34.4046 C   0  0  0  0  0  0  0  0  0  0  0  0
   18.7570   -1.5251  -34.2257 C   0  0  0  0  0  0  0  0  0  0  0  0
   18.3523   -2.8113  -33.6994 N   0  0  0  0  0  0  0  0  0  0  0  0
   17.6266   -2.6356  -32.4625 C   0  0  0  0  0  0  0  0  0  0  0  0
   17.4571   -1.2200  -32.0239 C   0  0  0  0  0  0  0  0  0  0  0  0
   14.6652   -1.9647  -33.3422 S   0  0  0  0  0  0  0  0  0  0  0  0
   11.9241   -3.5082  -33.3892 C   0  0  0  0  0  0  0  0  0  0  0  0
   10.8596   -4.3746  -33.4105 C   0  0  0  0  0  0  0  0  0  0  0  0
   10.8911   -5.7177  -33.3336 O   0  0  0  0  0  0  0  0  0  0  0  0
   12.0599   -6.5303  -33.2233 C   0  0  0  0  0  0  0  0  0  0  0  0
   13.0573   -6.4307  -32.2845 C   0  0  0  0  0  0  0  0  0  0  0  0
   12.9046   -6.9041  -30.9606 C   0  0  0  0  0  0  0  0  0  0  0  0
   13.9595   -6.9222  -30.0708 C   0  0  0  0  0  0  0  0  0  0  0  0
   15.2130   -6.4865  -30.3979 N   0  0  0  0  0  0  0  0  0  0  0  0
   15.3826   -6.0227  -31.6817 C   0  0  0  0  0  0  0  0  0  0  0  0
   14.3594   -5.9985  -32.5749 C   0  0  0  0  0  0  0  0  0  0  0  0
  1  2  1  0
  2  3  2  0
  3  4  1  0
  4  5  2  0
  5  6  1  0
  6  7  2  0
  7  8  1  0
  8  9  2  0
  9 10  1  0
 10 11  1  0
 11 12  1  0
 12 13  1  0
 13 14  1  0
 14 15  1  0
  9 16  1  0
  5 17  1  0
 17 18  2  0
 18 19  1  0
 19 20  1  0
 20 21  1  0
 21 22  2  0
 22 23  1  0
 23 24  2  0
 24 25  1  0
 25 26  2  0
 18  2  1  0
 26 21  1  0
 16  6  1  0
 15 10  1  0
M  CHG  1  13   1
M  END
>  <shape_align_shape_tanimoto>  (1) 
0.67490028577714289

>  <shape_align_color_tanimoto>  (1) 
0.11614279252577003

>  <metric>  (1) 
shape

>  <metric_score>  (1) 
0.675

>  <template_pid>  (1) 
5J5T

>  <template_shape_score>  (1) 
0.675

>  <template_color_score>  (1) 
0.116

>  <template_combo_score>  (1) 
0.396

$$$$
5J5T_color_pose
     RDKit          3D

 26 29  0  0  0  0  0  0  0  0999 V2000
    9.0114   -4.4710  -33.4413 N   0  0  0  0  0  0  0  0  0  0  0  0
   10.2055   -3.6774  -33.4088 C   0  0  0  0  0  0  0  0  0  0  0  0
   10.0938   -2.3422  -33.4639 N   0  0  0  0  0  0  0  0  0  0  0  0
   11.1510   -1.5145  -33.4398 C   0  0  0  0  0  0  0  0  0  0  0  0
   12.3952   -2.0783  -33.3546 C   0  0  0  0  0  0  0  0  0  0  0  0
   13.5636   -1.2171  -33.3259 C   0  0  0  0  0  0  0  0  0  0  0  0
   13.7823    0.1186  -33.3639 C   0  0  0  0  0  0  0  0  0  0  0  0
   15.0400    0.4870  -33.3124 N   0  0  0  0  0  0  0  0  0  0  0  0
   16.0224   -0.1033  -33.2397 C   0  0  0  0  0  0  0  0  0  0  0  0
   17.5198   -0.1475  -33.1606 C   0  0  0  0  0  0  0  0  0  0  0  0
   18.1132   -0.8917  -34.3378 C   0  0  0  0  0  0  0  0  0  0  0  0
   19.5898   -0.7002  -34.2951 C   0  0  0  0  0  0  0  0  0  0  0  0
   20.0353   -0.4209  -32.9354 N   0  0  0  0  0  0  0  0  0  0  0  0
   19.3411   -1.3027  -32.0148 C   0  0  0  0  0  0  0  0  0  0  0  0
   17.8925   -0.8999  -31.9104 C   0  0  0  0  0  0  0  0  0  0  0  0
   15.3088   -1.8974  -33.2104 S   0  0  0  0  0  0  0  0  0  0  0  0
   12.5356   -3.4456  -33.2968 C   0  0  0  0  0  0  0  0  0  0  0  0
   11.4674   -4.3042  -33.3201 C   0  0  0  0  0  0  0  0  0  0  0  0
   11.4726   -5.6463  -33.2711 O   0  0  0  0  0  0  0  0  0  0  0  0
   12.4243   -6.6344  -33.1793 C   0  0  0  0  0  0  0  0  0  0  0  0
   13.2787   -6.6602  -31.9963 C   0  0  0  0  0  0  0  0  0  0  0  0
   14.5286   -6.1198  -31.8692 C   0  0  0  0  0  0  0  0  0  0  0  0
   15.2756   -6.1767  -30.7052 C   0  0  0  0  0  0  0  0  0  0  0  0
   14.7400   -6.7986  -29.6427 N   0  0  0  0  0  0  0  0  0  0  0  0
   13.5301   -7.3514  -29.6819 C   0  0  0  0  0  0  0  0  0  0  0  0
   12.7705   -7.2970  -30.8550 C   0  0  0  0  0  0  0  0  0  0  0  0
  1  2  1  0
  2  3  2  0
  3  4  1  0
  4  5  2  0
  5  6  1  0
  6  7  2  0
  7  8  1  0
  8  9  2  0
  9 10  1  0
 10 11  1  0
 11 12  1  0
 12 13  1  0
 13 14  1  0
 14 15  1  0
  9 16  1  0
  5 17  1  0
 17 18  2  0
 18 19  1  0
 19 20  1  0
 20 21  1  0
 21 22  2  0
 22 23  1  0
 23 24  2  0
 24 25  1  0
 25 26  2  0
 18  2  1  0
 26 21  1  0
 16  6  1  0
 15 10  1  0
M  CHG  1  13   1
M  END
>  <shape_align_shape_tanimoto>  (2) 
0.57364172004873881

>  <shape_align_color_tanimoto>  (2) 
0.1306784456724864

>  <metric>  (2) 
color

>  <metric_score>  (2) 
0.131

>  <template_pid>  (2) 
5J5T

>  <template_shape_score>  (2) 
0.574

>  <template_color_score>  (2) 
0.131

>  <template_combo_score>  (2) 
0.352

$$$$
5J5T_combo_pose
     RDKit          3D

 26 29  0  0  0  0  0  0  0  0999 V2000
    8.3999   -4.5769  -33.5550 N   0  0  0  0  0  0  0  0  0  0  0  0
    9.6090   -3.7606  -33.5170 C   0  0  0  0  0  0  0  0  0  0  0  0
    9.4602   -2.4295  -33.5910 N   0  0  0  0  0  0  0  0  0  0  0  0
   10.5221   -1.5979  -33.5663 C   0  0  0  0  0  0  0  0  0  0  0  0
   11.7695   -2.1335  -33.4649 C   0  0  0  0  0  0  0  0  0  0  0  0
   13.0011   -1.2887  -33.3623 C   0  0  0  0  0  0  0  0  0  0  0  0
   13.1975    0.0077  -33.2067 C   0  0  0  0  0  0  0  0  0  0  0  0
   14.4671    0.4002  -33.0927 N   0  0  0  0  0  0  0  0  0  0  0  0
   15.4275   -0.2399  -33.1099 C   0  0  0  0  0  0  0  0  0  0  0  0
   16.9402   -0.2838  -33.0322 C   0  0  0  0  0  0  0  0  0  0  0  0
   17.4809   -0.6911  -34.4046 C   0  0  0  0  0  0  0  0  0  0  0  0
   18.7570   -1.5251  -34.2257 C   0  0  0  0  0  0  0  0  0  0  0  0
   18.3523   -2.8113  -33.6994 N   0  0  0  0  0  0  0  0  0  0  0  0
   17.6266   -2.6356  -32.4625 C   0  0  0  0  0  0  0  0  0  0  0  0
   17.4571   -1.2200  -32.0239 C   0  0  0  0  0  0  0  0  0  0  0  0
   14.6652   -1.9647  -33.3422 S   0  0  0  0  0  0  0  0  0  0  0  0
   11.9241   -3.5082  -33.3892 C   0  0  0  0  0  0  0  0  0  0  0  0
   10.8596   -4.3746  -33.4105 C   0  0  0  0  0  0  0  0  0  0  0  0
   10.8911   -5.7177  -33.3336 O   0  0  0  0  0  0  0  0  0  0  0  0
   12.0599   -6.5303  -33.2233 C   0  0  0  0  0  0  0  0  0  0  0  0
   13.0573   -6.4307  -32.2845 C   0  0  0  0  0  0  0  0  0  0  0  0
   12.9046   -6.9041  -30.9606 C   0  0  0  0  0  0  0  0  0  0  0  0
   13.9595   -6.9222  -30.0708 C   0  0  0  0  0  0  0  0  0  0  0  0
   15.2130   -6.4865  -30.3979 N   0  0  0  0  0  0  0  0  0  0  0  0
   15.3826   -6.0227  -31.6817 C   0  0  0  0  0  0  0  0  0  0  0  0
   14.3594   -5.9985  -32.5749 C   0  0  0  0  0  0  0  0  0  0  0  0
  1  2  1  0
  2  3  2  0
  3  4  1  0
  4  5  2  0
  5  6  1  0
  6  7  2  0
  7  8  1  0
  8  9  2  0
  9 10  1  0
 10 11  1  0
 11 12  1  0
 12 13  1  0
 13 14  1  0
 14 15  1  0
  9 16  1  0
  5 17  1  0
 17 18  2  0
 18 19  1  0
 19 20  1  0
 20 21  1  0
 21 22  2  0
 22 23  1  0
 23 24  2  0
 24 25  1  0
 25 26  2  0
 18  2  1  0
 26 21  1  0
 16  6  1  0
 15 10  1  0
M  CHG  1  13   1
M  END
>  <shape_align_shape_tanimoto>  (3) 
0.67490028577714289

>  <shape_align_color_tanimoto>  (3) 
0.11614279252577003

>  <metric>  (3) 
combo

>  <metric_score>  (3) 
0.396

>  <template_pid>  (3) 
5J5T

>  <template_shape_score>  (3) 
0.675

>  <template_color_score>  (3) 
0.116

>  <template_combo_score>  (3) 
0.396

$$$$
