3F16_shape_pose
     RDKit          3D

 19 19  0  0  0  0  0  0  0  0999 V2000
   -4.9879   52.9795   50.2429 C   0  0  0  0  0  0  0  0  0  0  0  0
   -4.4359   51.6788   50.2724 O   0  0  0  0  0  0  0  0  0  0  0  0
   -3.0693   51.5413   50.0951 C   0  0  0  0  0  0  0  0  0  0  0  0
   -2.2140   52.6023   49.8910 C   0  0  0  0  0  0  0  0  0  0  0  0
   -0.8564   52.3920   49.7209 C   0  0  0  0  0  0  0  0  0  0  0  0
   -0.3275   51.1164   49.7516 C   0  0  0  0  0  0  0  0  0  0  0  0
    1.3746   50.9118   49.5335 S   0  0  0  0  0  0  0  0  0  0  0  0
    1.6464   49.6090   48.7936 O   0  0  0  0  0  0  0  0  0  0  0  0
    1.8465   51.9931   48.6035 O   0  0  0  0  0  0  0  0  0  0  0  0
    2.2562   50.9567   50.9877 N   0  0  0  0  0  0  0  0  0  0  0  0
    1.9548   49.9598   51.9404 C   0  0  2  0  0  0  0  0  0  0  0  0
    1.3581   50.5602   53.2295 C   0  0  0  0  0  0  0  0  0  0  0  0
    0.1776   51.2486   52.9460 O   0  0  0  0  0  0  0  0  0  0  0  0
    3.0729   49.1223   52.4002 C   0  0  0  0  0  0  0  0  0  0  0  0
    2.8038   48.2311   53.2748 O   0  0  0  0  0  0  0  0  0  0  0  0
    4.4120   49.1998   51.9763 N   0  0  0  0  0  0  0  0  0  0  0  0
    5.3282   48.3348   52.5152 O   0  0  0  0  0  0  0  0  0  0  0  0
   -1.1783   50.0256   49.9574 C   0  0  0  0  0  0  0  0  0  0  0  0
   -2.5244   50.2727   50.1230 C   0  0  0  0  0  0  0  0  0  0  0  0
  1  2  1  0
  2  3  1  0
  3  4  2  0
  4  5  1  0
  5  6  2  0
  6  7  1  0
  7  8  2  0
  7  9  2  0
  7 10  1  0
 10 11  1  0
 11 12  1  1
 12 13  1  0
 11 14  1  0
 14 15  2  0
 14 16  1  0
 16 17  1  0
  6 18  1  0
 18 19  2  0
 19  3  1  0
M  END
>  <shape_align_shape_tanimoto>  (1) 
0.52671540930752048

>  <shape_align_color_tanimoto>  (1) 
0.0096902794330185529

>  <metric>  (1) 
shape

>  <metric_score>  (1) 
0.527

>  <template_pid>  (1) 
3F16

>  <template_shape_score>  (1) 
0.527

>  <template_color_score>  (1) 
0.010

>  <template_combo_score>  (1) 
0.268

$$$$
3F16_color_pose
     RDKit          3D

 19 19  0  0  0  0  0  0  0  0999 V2000
   -5.7077   51.6609   48.7782 C   0  0  0  0  0  0  0  0  0  0  0  0
   -4.7417   52.5625   49.3396 O   0  0  0  0  0  0  0  0  0  0  0  0
   -3.6440   52.0026   49.9837 C   0  0  0  0  0  0  0  0  0  0  0  0
   -2.6759   52.8341   50.5466 C   0  0  0  0  0  0  0  0  0  0  0  0
   -1.5884   52.2679   51.1847 C   0  0  0  0  0  0  0  0  0  0  0  0
   -1.4088   50.9073   51.2950 C   0  0  0  0  0  0  0  0  0  0  0  0
   -0.0484   50.2080   52.0932 S   0  0  0  0  0  0  0  0  0  0  0  0
   -0.4792   48.8801   52.6558 O   0  0  0  0  0  0  0  0  0  0  0  0
    0.3831   51.0144   53.3038 O   0  0  0  0  0  0  0  0  0  0  0  0
    1.2846   49.9174   51.0885 N   0  0  0  0  0  0  0  0  0  0  0  0
    1.8673   51.0705   50.4643 C   0  0  2  0  0  0  0  0  0  0  0  0
    1.8325   51.0127   48.9594 C   0  0  0  0  0  0  0  0  0  0  0  0
    2.4010   52.1470   48.3871 O   0  0  0  0  0  0  0  0  0  0  0  0
    3.2403   51.2092   51.0096 C   0  0  0  0  0  0  0  0  0  0  0  0
    3.6557   50.3491   51.8479 O   0  0  0  0  0  0  0  0  0  0  0  0
    4.1364   52.2432   50.6619 N   0  0  0  0  0  0  0  0  0  0  0  0
    5.3846   52.3374   51.1804 O   0  0  0  0  0  0  0  0  0  0  0  0
   -2.3776   50.0695   50.7317 C   0  0  0  0  0  0  0  0  0  0  0  0
   -3.4624   50.6379   50.0951 C   0  0  0  0  0  0  0  0  0  0  0  0
  1  2  1  0
  2  3  1  0
  3  4  2  0
  4  5  1  0
  5  6  2  0
  6  7  1  0
  7  8  2  0
  7  9  2  0
  7 10  1  0
 10 11  1  0
 11 12  1  6
 12 13  1  0
 11 14  1  0
 14 15  2  0
 14 16  1  0
 16 17  1  0
  6 18  1  0
 18 19  2  0
 19  3  1  0
M  END
>  <shape_align_shape_tanimoto>  (2) 
0.4643933135604329

>  <shape_align_color_tanimoto>  (2) 
0.11024572547993654

>  <metric>  (2) 
color

>  <metric_score>  (2) 
0.110

>  <template_pid>  (2) 
3F16

>  <template_shape_score>  (2) 
0.464

>  <template_color_score>  (2) 
0.110

>  <template_combo_score>  (2) 
0.287

$$$$
3F16_combo_pose
     RDKit          3D

 19 19  0  0  0  0  0  0  0  0999 V2000
    2.0734   48.5825   58.9153 C   0  0  0  0  0  0  0  0  0  0  0  0
    2.4018   47.6047   57.9463 O   0  0  0  0  0  0  0  0  0  0  0  0
    2.6370   48.0460   56.6498 C   0  0  0  0  0  0  0  0  0  0  0  0
    2.5630   49.3749   56.2836 C   0  0  0  0  0  0  0  0  0  0  0  0
    2.8146   49.7267   54.9601 C   0  0  0  0  0  0  0  0  0  0  0  0
    3.1369   48.7694   54.0076 C   0  0  0  0  0  0  0  0  0  0  0  0
    3.4327   49.3019   52.3885 S   0  0  0  0  0  0  0  0  0  0  0  0
    4.3746   48.2616   51.8043 O   0  0  0  0  0  0  0  0  0  0  0  0
    4.2869   50.5647   52.3858 O   0  0  0  0  0  0  0  0  0  0  0  0
    2.1293   49.3712   51.3518 N   0  0  0  0  0  0  0  0  0  0  0  0
    1.0294   50.1919   51.5775 C   0  0  2  0  0  0  0  0  0  0  0  0
   -0.1550   49.2813   51.8768 C   0  0  0  0  0  0  0  0  0  0  0  0
    0.1251   48.5106   53.0076 O   0  0  0  0  0  0  0  0  0  0  0  0
    0.6006   51.0663   50.4755 C   0  0  0  0  0  0  0  0  0  0  0  0
    1.2151   51.0710   49.3557 O   0  0  0  0  0  0  0  0  0  0  0  0
   -0.5253   51.9140   50.6902 N   0  0  0  0  0  0  0  0  0  0  0  0
   -0.8768   52.7045   49.6285 O   0  0  0  0  0  0  0  0  0  0  0  0
    3.2051   47.4367   54.4021 C   0  0  0  0  0  0  0  0  0  0  0  0
    2.9580   47.0678   55.7139 C   0  0  0  0  0  0  0  0  0  0  0  0
  1  2  1  0
  2  3  1  0
  3  4  2  0
  4  5  1  0
  5  6  2  0
  6  7  1  0
  7  8  2  0
  7  9  2  0
  7 10  1  0
 10 11  1  0
 11 12  1  6
 12 13  1  0
 11 14  1  0
 14 15  2  0
 14 16  1  0
 16 17  1  0
  6 18  1  0
 18 19  2  0
 19  3  1  0
M  END
>  <shape_align_shape_tanimoto>  (3) 
0.50315644851309205

>  <shape_align_color_tanimoto>  (3) 
0.095457297819784431

>  <metric>  (3) 
combo

>  <metric_score>  (3) 
0.299

>  <template_pid>  (3) 
3F16

>  <template_shape_score>  (3) 
0.503

>  <template_color_score>  (3) 
0.095

>  <template_combo_score>  (3) 
0.299

$$$$
