3RWJ_shape_pose
     RDKit          3D

 74 77  0  0  0  0  0  0  0  0999 V2000
  -15.5361  -40.6232  -76.4044 C   0  0  0  0  0  0  0  0  0  0  0  0
  -14.3885  -41.5178  -76.6608 C   0  0  0  0  0  0  0  0  0  0  0  0
  -13.1638  -40.7422  -76.6769 C   0  0  0  0  0  0  0  0  0  0  0  0
  -14.4002  -42.7160  -75.8633 C   0  0  0  0  0  0  0  0  0  0  0  0
  -14.3770  -42.5589  -74.4281 C   0  0  2  0  0  0  0  0  0  0  0  0
  -13.2500  -41.8968  -73.9281 N   0  0  0  0  0  0  0  0  0  0  0  0
  -11.9400  -42.2276  -74.2141 C   0  0  0  0  0  0  0  0  0  0  0  0
  -11.6695  -43.1551  -74.9613 O   0  0  0  0  0  0  0  0  0  0  0  0
  -10.8052  -41.4974  -73.6427 C   0  0  1  0  0  0  0  0  0  0  0  0
  -11.2736  -40.4636  -72.8388 N   0  0  0  0  0  0  0  0  0  0  0  0
   -9.9065  -42.4320  -72.9474 C   0  0  0  0  0  0  0  0  0  0  0  0
   -8.8002  -41.7340  -72.3673 C   0  0  0  0  0  0  0  0  0  0  0  0
   -7.5780  -41.4456  -72.8694 C   0  0  0  0  0  0  0  0  0  0  0  0
   -6.9461  -40.7987  -71.9006 N   0  0  0  0  0  0  0  0  0  0  0  0
   -7.7048  -40.6819  -70.8580 C   0  0  0  0  0  0  0  0  0  0  0  0
   -8.8369  -41.2512  -71.1360 N   0  0  0  0  0  0  0  0  0  0  0  0
  -14.5719  -43.8693  -73.7737 C   0  0  0  0  0  0  0  0  0  0  0  0
  -15.4659  -44.6044  -74.0721 O   0  0  0  0  0  0  0  0  0  0  0  0
  -13.6816  -44.2241  -72.7948 N   0  0  0  0  0  0  0  0  0  0  0  0
  -13.5867  -45.3534  -72.0144 C   0  0  1  0  0  0  0  0  0  0  0  0
  -14.7450  -45.4108  -71.0483 C   0  0  0  0  0  0  0  0  0  0  0  0
  -14.7999  -44.2593  -70.1778 C   0  0  0  0  0  0  0  0  0  0  0  0
  -13.6810  -44.0702  -69.3231 C   0  0  0  0  0  0  0  0  0  0  0  0
  -12.7238  -44.8303  -69.2038 O   0  0  0  0  0  0  0  0  0  0  0  0
  -13.6521  -42.9429  -68.5573 O   0  0  0  0  0  0  0  0  0  0  0  0
  -13.6974  -46.6403  -72.7228 C   0  0  0  0  0  0  0  0  0  0  0  0
  -14.3202  -46.7562  -73.7594 O   0  0  0  0  0  0  0  0  0  0  0  0
  -13.0518  -47.7078  -72.1482 N   0  0  0  0  0  0  0  0  0  0  0  0
  -12.9983  -49.0289  -72.5777 C   0  0  2  0  0  0  0  0  0  0  0  0
  -12.3196  -49.9130  -71.6805 C   0  0  0  0  0  0  0  0  0  0  0  0
  -12.5747  -51.1298  -71.7295 O   0  0  0  0  0  0  0  0  0  0  0  0
  -11.3752  -49.5347  -70.7555 N   0  0  0  0  0  0  0  0  0  0  0  0
  -10.7071  -50.4866  -69.8883 C   0  0  1  0  0  0  0  0  0  0  0  0
   -9.7487  -51.2321  -70.7454 C   0  0  0  0  0  0  0  0  0  0  0  0
   -8.9653  -52.2446  -70.0740 C   0  0  0  0  0  0  0  0  0  0  0  0
   -9.7486  -53.2514  -69.4429 C   0  0  0  0  0  0  0  0  0  0  0  0
   -9.0439  -54.2056  -68.6790 N   0  0  0  0  0  0  0  0  0  0  0  0
  -10.9518  -53.3902  -69.4834 O   0  0  0  0  0  0  0  0  0  0  0  0
  -10.1316  -49.7393  -68.8444 C   0  0  0  0  0  0  0  0  0  0  0  0
  -10.3515  -48.4984  -68.8685 O   0  0  0  0  0  0  0  0  0  0  0  0
   -9.3535  -50.1644  -67.8025 N   0  0  0  0  0  0  0  0  0  0  0  0
   -8.8590  -49.2163  -66.9076 C   0  0  0  0  0  0  0  0  0  0  0  0
   -9.8521  -48.5196  -66.1276 C   0  0  0  0  0  0  0  0  0  0  0  0
  -11.0468  -48.7844  -66.1660 O   0  0  0  0  0  0  0  0  0  0  0  0
   -9.3555  -47.5042  -65.3130 N   0  0  0  0  0  0  0  0  0  0  0  0
  -10.2066  -46.7308  -64.4548 C   0  0  1  0  0  0  0  0  0  0  0  0
   -9.3597  -46.1612  -63.4608 C   0  0  0  0  0  0  0  0  0  0  0  0
   -9.9072  -45.2913  -62.4764 C   0  0  0  0  0  0  0  0  0  0  0  0
  -10.4385  -45.6707  -61.3070 C   0  0  0  0  0  0  0  0  0  0  0  0
  -10.8942  -44.7349  -60.4517 C   0  0  0  0  0  0  0  0  0  0  0  0
  -10.8168  -43.4310  -60.7697 C   0  0  0  0  0  0  0  0  0  0  0  0
  -11.2857  -42.5350  -59.8868 O   0  0  0  0  0  0  0  0  0  0  0  0
  -10.2849  -43.0094  -61.9473 C   0  0  0  0  0  0  0  0  0  0  0  0
   -9.8363  -43.9451  -62.7856 C   0  0  0  0  0  0  0  0  0  0  0  0
  -11.0486  -45.8712  -65.2286 C   0  0  0  0  0  0  0  0  0  0  0  0
  -10.9269  -45.8518  -66.4789 O   0  0  0  0  0  0  0  0  0  0  0  0
  -11.9779  -45.0808  -64.6235 N   0  0  0  0  0  0  0  0  0  0  0  0
  -12.8170  -44.2423  -65.4738 C   0  0  1  0  0  0  0  0  0  0  0  0
  -14.1602  -44.2261  -64.9566 C   0  0  0  0  0  0  0  0  0  0  0  0
  -15.1573  -43.4922  -65.6487 C   0  0  0  0  0  0  0  0  0  0  0  0
  -15.8870  -44.0815  -66.6669 C   0  0  0  0  0  0  0  0  0  0  0  0
  -16.6941  -43.1877  -67.1792 N   0  0  0  0  0  0  0  0  0  0  0  0
  -16.5531  -42.0436  -66.5721 C   0  0  0  0  0  0  0  0  0  0  0  0
  -17.1692  -40.8660  -66.7431 C   0  0  0  0  0  0  0  0  0  0  0  0
  -16.8440  -39.8359  -65.9530 C   0  0  0  0  0  0  0  0  0  0  0  0
  -15.8976  -40.0104  -64.9974 C   0  0  0  0  0  0  0  0  0  0  0  0
  -15.3067  -41.1932  -64.8592 C   0  0  0  0  0  0  0  0  0  0  0  0
  -15.6048  -42.2473  -65.6326 C   0  0  0  0  0  0  0  0  0  0  0  0
  -12.1551  -43.0130  -65.7127 C   0  0  0  0  0  0  0  0  0  0  0  0
  -12.4229  -41.9003  -65.3480 O   0  0  0  0  0  0  0  0  0  0  0  0
  -11.0118  -43.1070  -66.4963 O   0  0  0  0  0  0  0  0  0  0  0  0
  -12.1247  -49.1207  -73.8216 C   0  0  0  0  0  0  0  0  0  0  0  0
  -10.8228  -48.6072  -73.4541 C   0  0  0  0  0  0  0  0  0  0  0  0
  -12.6978  -48.6313  -75.0291 C   0  0  0  0  0  0  0  0  0  0  0  0
  1  2  1  0
  2  3  1  0
  2  4  1  0
  5  4  1  6
  5  6  1  0
  6  7  1  0
  7  8  2  0
  7  9  1  0
  9 10  1  1
  9 11  1  0
 11 12  1  0
 12 13  2  0
 13 14  1  0
 14 15  1  0
 15 16  2  0
  5 17  1  0
 17 18  2  0
 17 19  1  0
 19 20  1  0
 20 21  1  1
 21 22  1  0
 22 23  1  0
 23 24  2  0
 23 25  1  0
 20 26  1  0
 26 27  2  0
 26 28  1  0
 29 28  1  1
 29 30  1  0
 30 31  2  0
 30 32  1  0
 32 33  1  0
 33 34  1  6
 34 35  1  0
 35 36  1  0
 36 37  1  0
 36 38  2  0
 33 39  1  0
 39 40  2  0
 39 41  1  0
 41 42  1  0
 42 43  1  0
 43 44  2  0
 43 45  1  0
 45 46  1  0
 46 47  1  1
 47 48  1  0
 48 49  2  0
 49 50  1  0
 50 51  2  0
 51 52  1  0
 51 53  1  0
 53 54  2  0
 46 55  1  0
 55 56  2  0
 55 57  1  0
 57 58  1  0
 58 59  1  1
 59 60  1  0
 60 61  2  0
 61 62  1  0
 62 63  1  0
 63 64  2  0
 64 65  1  0
 65 66  2  0
 66 67  1  0
 67 68  2  0
 58 69  1  0
 69 70  2  0
 69 71  1  0
 29 72  1  0
 72 73  1  0
 72 74  1  0
 16 12  1  0
 54 48  1  0
 68 60  1  0
 68 63  1  0
M  CHG  3  10   1  25  -1  71  -1
M  END
>  <shape_align_shape_tanimoto>  (1) 
0.33039852148568777

>  <shape_align_color_tanimoto>  (1) 
0.0078959005794265943

>  <metric>  (1) 
shape

>  <metric_score>  (1) 
0.330

>  <template_pid>  (1) 
3RWJ

>  <template_shape_score>  (1) 
0.330

>  <template_color_score>  (1) 
0.008

>  <template_combo_score>  (1) 
0.169

$$$$
3RWJ_color_pose
     RDKit          3D

 74 77  0  0  0  0  0  0  0  0999 V2000
  -13.4933  -42.4769  -70.7170 C   0  0  0  0  0  0  0  0  0  0  0  0
  -13.2490  -42.7228  -69.2926 C   0  0  0  0  0  0  0  0  0  0  0  0
  -13.0979  -41.3618  -68.5901 C   0  0  0  0  0  0  0  0  0  0  0  0
  -14.2008  -43.5357  -68.5404 C   0  0  0  0  0  0  0  0  0  0  0  0
  -14.4668  -44.9436  -68.9107 C   0  0  2  0  0  0  0  0  0  0  0  0
  -15.0629  -45.3289  -70.1154 N   0  0  0  0  0  0  0  0  0  0  0  0
  -16.0336  -44.6456  -70.8963 C   0  0  0  0  0  0  0  0  0  0  0  0
  -16.4631  -43.5002  -70.4963 O   0  0  0  0  0  0  0  0  0  0  0  0
  -16.6142  -45.1327  -72.1505 C   0  0  1  0  0  0  0  0  0  0  0  0
  -17.3347  -44.0604  -72.8578 N   0  0  0  0  0  0  0  0  0  0  0  0
  -15.7843  -45.9464  -73.0568 C   0  0  0  0  0  0  0  0  0  0  0  0
  -14.5580  -45.3389  -73.5906 C   0  0  0  0  0  0  0  0  0  0  0  0
  -14.5179  -44.5950  -74.7757 C   0  0  0  0  0  0  0  0  0  0  0  0
  -13.2551  -44.1835  -74.9728 N   0  0  0  0  0  0  0  0  0  0  0  0
  -12.4825  -44.6273  -73.9703 C   0  0  0  0  0  0  0  0  0  0  0  0
  -13.2950  -45.3239  -73.1498 N   0  0  0  0  0  0  0  0  0  0  0  0
  -14.8940  -45.7495  -67.7026 C   0  0  0  0  0  0  0  0  0  0  0  0
  -14.3591  -45.3454  -66.6166 O   0  0  0  0  0  0  0  0  0  0  0  0
  -15.7905  -46.8328  -67.7749 N   0  0  0  0  0  0  0  0  0  0  0  0
  -16.1251  -47.5221  -66.5295 C   0  0  1  0  0  0  0  0  0  0  0  0
  -17.5100  -47.1033  -66.1578 C   0  0  0  0  0  0  0  0  0  0  0  0
  -18.1349  -47.7037  -64.9611 C   0  0  0  0  0  0  0  0  0  0  0  0
  -18.4412  -49.1590  -65.1980 C   0  0  0  0  0  0  0  0  0  0  0  0
  -18.4505  -49.4788  -66.4377 O   0  0  0  0  0  0  0  0  0  0  0  0
  -18.6837  -50.0485  -64.1847 O   0  0  0  0  0  0  0  0  0  0  0  0
  -15.6988  -48.8901  -66.4211 C   0  0  0  0  0  0  0  0  0  0  0  0
  -15.7464  -49.4732  -65.2808 O   0  0  0  0  0  0  0  0  0  0  0  0
  -15.1944  -49.7284  -67.4800 N   0  0  0  0  0  0  0  0  0  0  0  0
  -14.7567  -51.0727  -67.2827 C   0  0  2  0  0  0  0  0  0  0  0  0
  -13.3105  -51.2732  -67.5748 C   0  0  0  0  0  0  0  0  0  0  0  0
  -12.8618  -52.4398  -67.3805 O   0  0  0  0  0  0  0  0  0  0  0  0
  -12.4597  -50.2047  -68.0491 N   0  0  0  0  0  0  0  0  0  0  0  0
  -11.0869  -50.4842  -68.2822 C   0  0  1  0  0  0  0  0  0  0  0  0
  -10.6369  -50.7434  -69.6715 C   0  0  0  0  0  0  0  0  0  0  0  0
  -10.8538  -49.7092  -70.7026 C   0  0  0  0  0  0  0  0  0  0  0  0
  -12.2730  -49.4492  -70.9725 C   0  0  0  0  0  0  0  0  0  0  0  0
  -12.6287  -48.2608  -71.6996 N   0  0  0  0  0  0  0  0  0  0  0  0
  -13.2298  -50.1802  -70.6273 O   0  0  0  0  0  0  0  0  0  0  0  0
  -10.1268  -49.6427  -67.5103 C   0  0  0  0  0  0  0  0  0  0  0  0
   -8.9043  -50.0078  -67.6124 O   0  0  0  0  0  0  0  0  0  0  0  0
  -10.4406  -48.5416  -66.7184 N   0  0  0  0  0  0  0  0  0  0  0  0
   -9.3277  -47.8809  -66.0203 C   0  0  0  0  0  0  0  0  0  0  0  0
   -9.8988  -46.7497  -65.2573 C   0  0  0  0  0  0  0  0  0  0  0  0
  -11.0944  -46.3991  -65.2837 O   0  0  0  0  0  0  0  0  0  0  0  0
   -9.0417  -45.9631  -64.3933 N   0  0  0  0  0  0  0  0  0  0  0  0
   -9.6946  -44.8774  -63.6916 C   0  0  1  0  0  0  0  0  0  0  0  0
  -10.4596  -45.4655  -62.4856 C   0  0  0  0  0  0  0  0  0  0  0  0
  -11.1609  -44.4349  -61.7250 C   0  0  0  0  0  0  0  0  0  0  0  0
  -10.7483  -43.8473  -60.5589 C   0  0  0  0  0  0  0  0  0  0  0  0
  -11.4659  -42.8460  -59.9076 C   0  0  0  0  0  0  0  0  0  0  0  0
  -12.6585  -42.4208  -60.4683 C   0  0  0  0  0  0  0  0  0  0  0  0
  -13.3686  -41.4271  -59.8219 O   0  0  0  0  0  0  0  0  0  0  0  0
  -13.1066  -42.9829  -61.6344 C   0  0  0  0  0  0  0  0  0  0  0  0
  -12.3773  -43.9733  -62.2574 C   0  0  0  0  0  0  0  0  0  0  0  0
   -8.7430  -43.8950  -63.2070 C   0  0  0  0  0  0  0  0  0  0  0  0
   -9.1970  -42.9381  -62.4908 O   0  0  0  0  0  0  0  0  0  0  0  0
   -7.3358  -43.8671  -63.4295 N   0  0  0  0  0  0  0  0  0  0  0  0
   -6.4193  -42.9283  -62.9091 C   0  0  1  0  0  0  0  0  0  0  0  0
   -6.4438  -41.5680  -63.5046 C   0  0  0  0  0  0  0  0  0  0  0  0
   -6.1237  -41.4761  -64.9327 C   0  0  0  0  0  0  0  0  0  0  0  0
   -4.8356  -41.1335  -65.3775 C   0  0  0  0  0  0  0  0  0  0  0  0
   -4.8209  -41.1376  -66.7323 N   0  0  0  0  0  0  0  0  0  0  0  0
   -6.0344  -41.4646  -67.1960 C   0  0  0  0  0  0  0  0  0  0  0  0
   -6.4995  -41.5880  -68.4812 C   0  0  0  0  0  0  0  0  0  0  0  0
   -7.8026  -41.9286  -68.6996 C   0  0  0  0  0  0  0  0  0  0  0  0
   -8.6065  -42.1356  -67.5803 C   0  0  0  0  0  0  0  0  0  0  0  0
   -8.1464  -42.0135  -66.2958 C   0  0  0  0  0  0  0  0  0  0  0  0
   -6.8361  -41.6731  -66.0774 C   0  0  0  0  0  0  0  0  0  0  0  0
   -6.4533  -42.8049  -61.4037 C   0  0  0  0  0  0  0  0  0  0  0  0
   -7.3911  -43.1860  -60.6904 O   0  0  0  0  0  0  0  0  0  0  0  0
   -5.3166  -42.2097  -60.8247 O   0  0  0  0  0  0  0  0  0  0  0  0
  -15.5468  -52.1570  -67.9185 C   0  0  0  0  0  0  0  0  0  0  0  0
  -16.9703  -52.1665  -67.4039 C   0  0  0  0  0  0  0  0  0  0  0  0
  -15.4696  -52.1499  -69.4074 C   0  0  0  0  0  0  0  0  0  0  0  0
  1  2  1  0
  2  3  1  0
  2  4  1  0
  5  4  1  1
  5  6  1  0
  6  7  1  0
  7  8  2  0
  7  9  1  0
  9 10  1  6
  9 11  1  0
 11 12  1  0
 12 13  2  0
 13 14  1  0
 14 15  1  0
 15 16  2  0
  5 17  1  0
 17 18  2  0
 17 19  1  0
 19 20  1  0
 20 21  1  6
 21 22  1  0
 22 23  1  0
 23 24  2  0
 23 25  1  0
 20 26  1  0
 26 27  2  0
 26 28  1  0
 29 28  1  6
 29 30  1  0
 30 31  2  0
 30 32  1  0
 32 33  1  0
 33 34  1  6
 34 35  1  0
 35 36  1  0
 36 37  1  0
 36 38  2  0
 33 39  1  0
 39 40  2  0
 39 41  1  0
 41 42  1  0
 42 43  1  0
 43 44  2  0
 43 45  1  0
 45 46  1  0
 46 47  1  1
 47 48  1  0
 48 49  2  0
 49 50  1  0
 50 51  2  0
 51 52  1  0
 51 53  1  0
 53 54  2  0
 46 55  1  0
 55 56  2  0
 55 57  1  0
 57 58  1  0
 58 59  1  6
 59 60  1  0
 60 61  2  0
 61 62  1  0
 62 63  1  0
 63 64  2  0
 64 65  1  0
 65 66  2  0
 66 67  1  0
 67 68  2  0
 58 69  1  0
 69 70  2  0
 69 71  1  0
 29 72  1  0
 72 73  1  0
 72 74  1  0
 16 12  1  0
 54 48  1  0
 68 60  1  0
 68 63  1  0
M  CHG  3  10   1  25  -1  71  -1
M  END
>  <shape_align_shape_tanimoto>  (2) 
0.25266381473543509

>  <shape_align_color_tanimoto>  (2) 
0.065235117402654044

>  <metric>  (2) 
color

>  <metric_score>  (2) 
0.065

>  <template_pid>  (2) 
3RWJ

>  <template_shape_score>  (2) 
0.253

>  <template_color_score>  (2) 
0.065

>  <template_combo_score>  (2) 
0.159

$$$$
3RWJ_combo_pose
     RDKit          3D

 74 77  0  0  0  0  0  0  0  0999 V2000
  -13.3865  -42.0603  -70.2898 C   0  0  0  0  0  0  0  0  0  0  0  0
  -14.2626  -42.7877  -71.3305 C   0  0  0  0  0  0  0  0  0  0  0  0
  -15.4150  -41.9209  -71.6468 C   0  0  0  0  0  0  0  0  0  0  0  0
  -13.4323  -43.2813  -72.4356 C   0  0  0  0  0  0  0  0  0  0  0  0
  -14.0337  -44.0132  -73.5651 C   0  0  2  0  0  0  0  0  0  0  0  0
  -15.0280  -43.3043  -74.3244 N   0  0  0  0  0  0  0  0  0  0  0  0
  -14.8250  -42.8098  -75.6462 C   0  0  0  0  0  0  0  0  0  0  0  0
  -13.6987  -42.9983  -76.2208 O   0  0  0  0  0  0  0  0  0  0  0  0
  -15.9421  -42.0936  -76.2907 C   0  0  1  0  0  0  0  0  0  0  0  0
  -17.1007  -41.9902  -75.4268 N   0  0  0  0  0  0  0  0  0  0  0  0
  -15.5236  -40.6827  -76.6534 C   0  0  0  0  0  0  0  0  0  0  0  0
  -15.1040  -39.8764  -75.4885 C   0  0  0  0  0  0  0  0  0  0  0  0
  -13.8048  -39.8039  -75.0229 C   0  0  0  0  0  0  0  0  0  0  0  0
  -13.8019  -38.9709  -73.9480 N   0  0  0  0  0  0  0  0  0  0  0  0
  -15.0464  -38.5278  -73.7333 C   0  0  0  0  0  0  0  0  0  0  0  0
  -15.8286  -39.0823  -74.6725 N   0  0  0  0  0  0  0  0  0  0  0  0
  -14.3107  -45.4552  -73.3760 C   0  0  0  0  0  0  0  0  0  0  0  0
  -15.3229  -45.9342  -73.9918 O   0  0  0  0  0  0  0  0  0  0  0  0
  -13.5356  -46.3008  -72.5792 N   0  0  0  0  0  0  0  0  0  0  0  0
  -13.7349  -47.7120  -72.3770 C   0  0  1  0  0  0  0  0  0  0  0  0
  -12.4470  -48.3776  -72.7764 C   0  0  0  0  0  0  0  0  0  0  0  0
  -11.2635  -47.8976  -72.0184 C   0  0  0  0  0  0  0  0  0  0  0  0
  -10.0764  -48.6746  -72.5320 C   0  0  0  0  0  0  0  0  0  0  0  0
   -8.9238  -48.3834  -72.0712 O   0  0  0  0  0  0  0  0  0  0  0  0
  -10.1994  -49.6761  -73.4724 O   0  0  0  0  0  0  0  0  0  0  0  0
  -14.1054  -48.0931  -71.0011 C   0  0  0  0  0  0  0  0  0  0  0  0
  -14.2319  -47.1941  -70.1536 O   0  0  0  0  0  0  0  0  0  0  0  0
  -14.3040  -49.4690  -70.7235 N   0  0  0  0  0  0  0  0  0  0  0  0
  -14.6996  -50.0482  -69.4813 C   0  0  2  0  0  0  0  0  0  0  0  0
  -13.5666  -50.6881  -68.7144 C   0  0  0  0  0  0  0  0  0  0  0  0
  -13.7925  -51.4058  -67.6963 O   0  0  0  0  0  0  0  0  0  0  0  0
  -12.2723  -50.4418  -69.1794 N   0  0  0  0  0  0  0  0  0  0  0  0
  -11.0225  -50.8959  -68.6704 C   0  0  1  0  0  0  0  0  0  0  0  0
   -9.9104  -51.0866  -69.6123 C   0  0  0  0  0  0  0  0  0  0  0  0
  -10.2841  -52.1166  -70.6649 C   0  0  0  0  0  0  0  0  0  0  0  0
   -9.1539  -52.2939  -71.5960 C   0  0  0  0  0  0  0  0  0  0  0  0
   -9.3481  -53.2630  -72.6477 N   0  0  0  0  0  0  0  0  0  0  0  0
   -8.0792  -51.6612  -71.5101 O   0  0  0  0  0  0  0  0  0  0  0  0
  -10.6846  -50.1597  -67.4069 C   0  0  0  0  0  0  0  0  0  0  0  0
  -11.6402  -49.9583  -66.6182 O   0  0  0  0  0  0  0  0  0  0  0  0
   -9.3979  -49.7005  -67.0881 N   0  0  0  0  0  0  0  0  0  0  0  0
   -8.9978  -49.0255  -65.8909 C   0  0  0  0  0  0  0  0  0  0  0  0
   -9.8483  -47.8648  -65.5287 C   0  0  0  0  0  0  0  0  0  0  0  0
  -10.8830  -47.5288  -66.1329 O   0  0  0  0  0  0  0  0  0  0  0  0
   -9.4496  -47.0937  -64.4133 N   0  0  0  0  0  0  0  0  0  0  0  0
  -10.2330  -45.9570  -63.8989 C   0  0  1  0  0  0  0  0  0  0  0  0
   -9.5292  -45.3006  -62.8034 C   0  0  0  0  0  0  0  0  0  0  0  0
  -10.2180  -44.1500  -62.2284 C   0  0  0  0  0  0  0  0  0  0  0  0
  -11.1772  -44.3864  -61.2420 C   0  0  0  0  0  0  0  0  0  0  0  0
  -11.8181  -43.2917  -60.6501 C   0  0  0  0  0  0  0  0  0  0  0  0
  -11.4914  -42.0121  -61.0505 C   0  0  0  0  0  0  0  0  0  0  0  0
  -12.1653  -40.9512  -60.4237 O   0  0  0  0  0  0  0  0  0  0  0  0
  -10.5387  -41.7540  -62.0304 C   0  0  0  0  0  0  0  0  0  0  0  0
   -9.9038  -42.8441  -62.6166 C   0  0  0  0  0  0  0  0  0  0  0  0
  -10.4749  -45.0424  -65.0751 C   0  0  0  0  0  0  0  0  0  0  0  0
   -9.8449  -45.1415  -66.1468 O   0  0  0  0  0  0  0  0  0  0  0  0
  -11.4912  -44.0655  -64.8768 N   0  0  0  0  0  0  0  0  0  0  0  0
  -11.9317  -43.1135  -65.8600 C   0  0  1  0  0  0  0  0  0  0  0  0
  -13.4164  -42.9290  -65.9171 C   0  0  0  0  0  0  0  0  0  0  0  0
  -14.2154  -44.1097  -66.2229 C   0  0  0  0  0  0  0  0  0  0  0  0
  -14.6866  -44.4099  -67.4944 C   0  0  0  0  0  0  0  0  0  0  0  0
  -15.3654  -45.5657  -67.4955 N   0  0  0  0  0  0  0  0  0  0  0  0
  -15.3504  -46.0366  -66.2361 C   0  0  0  0  0  0  0  0  0  0  0  0
  -15.9085  -47.1829  -65.7072 C   0  0  0  0  0  0  0  0  0  0  0  0
  -15.7910  -47.4881  -64.3807 C   0  0  0  0  0  0  0  0  0  0  0  0
  -15.0856  -46.5924  -63.5891 C   0  0  0  0  0  0  0  0  0  0  0  0
  -14.5370  -45.4659  -64.1096 C   0  0  0  0  0  0  0  0  0  0  0  0
  -14.6457  -45.1497  -65.4382 C   0  0  0  0  0  0  0  0  0  0  0  0
  -11.3590  -41.7681  -65.4762 C   0  0  0  0  0  0  0  0  0  0  0  0
  -10.1403  -41.5418  -65.6728 O   0  0  0  0  0  0  0  0  0  0  0  0
  -12.1415  -40.7772  -64.9133 O   0  0  0  0  0  0  0  0  0  0  0  0
  -15.7386  -51.1065  -69.7425 C   0  0  0  0  0  0  0  0  0  0  0  0
  -15.1695  -52.2046  -70.6473 C   0  0  0  0  0  0  0  0  0  0  0  0
  -16.9466  -50.5527  -70.4508 C   0  0  0  0  0  0  0  0  0  0  0  0
  1  2  1  0
  2  3  1  0
  2  4  1  0
  5  4  1  1
  5  6  1  0
  6  7  1  0
  7  8  2  0
  7  9  1  0
  9 10  1  1
  9 11  1  0
 11 12  1  0
 12 13  2  0
 13 14  1  0
 14 15  1  0
 15 16  2  0
  5 17  1  0
 17 18  2  0
 17 19  1  0
 19 20  1  0
 20 21  1  1
 21 22  1  0
 22 23  1  0
 23 24  2  0
 23 25  1  0
 20 26  1  0
 26 27  2  0
 26 28  1  0
 29 28  1  6
 29 30  1  0
 30 31  2  0
 30 32  1  0
 32 33  1  0
 33 34  1  6
 34 35  1  0
 35 36  1  0
 36 37  1  0
 36 38  2  0
 33 39  1  0
 39 40  2  0
 39 41  1  0
 41 42  1  0
 42 43  1  0
 43 44  2  0
 43 45  1  0
 45 46  1  0
 46 47  1  1
 47 48  1  0
 48 49  2  0
 49 50  1  0
 50 51  2  0
 51 52  1  0
 51 53  1  0
 53 54  2  0
 46 55  1  0
 55 56  2  0
 55 57  1  0
 57 58  1  0
 58 59  1  1
 59 60  1  0
 60 61  2  0
 61 62  1  0
 62 63  1  0
 63 64  2  0
 64 65  1  0
 65 66  2  0
 66 67  1  0
 67 68  2  0
 58 69  1  0
 69 70  2  0
 69 71  1  0
 29 72  1  0
 72 73  1  0
 72 74  1  0
 16 12  1  0
 54 48  1  0
 68 60  1  0
 68 63  1  0
M  CHG  3  10   1  25  -1  71  -1
M  END
>  <shape_align_shape_tanimoto>  (3) 
0.32871767583352851

>  <shape_align_color_tanimoto>  (3) 
0.03755136213368724

>  <metric>  (3) 
combo

>  <metric_score>  (3) 
0.183

>  <template_pid>  (3) 
3RWJ

>  <template_shape_score>  (3) 
0.329

>  <template_color_score>  (3) 
0.038

>  <template_combo_score>  (3) 
0.183

$$$$
