6I68_shape_pose
     RDKit          3D

 50 50  0  0  0  0  0  0  0  0999 V2000
   24.9646   16.5443   83.8499 C   0  0  0  0  0  0  0  0  0  0  0  0
   23.7900   16.6285   82.8788 C   0  0  0  0  0  0  0  0  0  0  0  0
   23.0944   15.3101   82.6784 C   0  0  0  0  0  0  0  0  0  0  0  0
   21.9820   15.4772   81.6831 C   0  0  0  0  0  0  0  0  0  0  0  0
   20.9805   16.4750   82.1742 C   0  0  2  0  0  0  0  0  0  0  0  0
   20.4257   16.0364   83.4344 N   0  0  0  0  0  0  0  0  0  0  0  0
   19.8405   16.5957   81.2035 C   0  0  0  0  0  0  0  0  0  0  0  0
   20.1805   17.1020   80.0802 O   0  0  0  0  0  0  0  0  0  0  0  0
   18.5023   16.2076   81.4473 N   0  0  0  0  0  0  0  0  0  0  0  0
   17.5612   16.4181   80.3786 C   0  0  1  0  0  0  0  0  0  0  0  0
   16.8161   15.1823   80.0049 C   0  0  0  0  0  0  0  0  0  0  0  0
   16.5939   17.5393   80.6695 C   0  0  0  0  0  0  0  0  0  0  0  0
   16.4976   18.0339   81.8380 O   0  0  0  0  0  0  0  0  0  0  0  0
   15.8285   17.9850   79.5677 N   0  0  0  0  0  0  0  0  0  0  0  0
   14.8460   19.1143   79.8223 C   0  0  1  0  0  0  0  0  0  0  0  0
   15.5752   20.3838   79.5058 C   0  0  0  0  0  0  0  0  0  0  0  0
   14.8245   21.6076   79.7585 C   0  0  0  0  0  0  0  0  0  0  0  0
   13.7768   21.8138   80.3456 O   0  0  0  0  0  0  0  0  0  0  0  0
   15.4399   22.7856   79.2042 O   0  0  0  0  0  0  0  0  0  0  0  0
   13.7702   18.7402   78.8792 C   0  0  0  0  0  0  0  0  0  0  0  0
   13.9983   17.6334   78.2487 O   0  0  0  0  0  0  0  0  0  0  0  0
   12.5906   19.3898   78.5775 N   0  0  0  0  0  0  0  0  0  0  0  0
   11.6446   18.8768   77.5803 C   0  0  2  0  0  0  0  0  0  0  0  0
   11.9119   19.6570   76.2894 C   0  0  0  0  0  0  0  0  0  0  0  0
   11.1973   19.5106   75.2736 O   0  0  0  0  0  0  0  0  0  0  0  0
   13.0287   20.5759   76.2789 N   0  0  0  0  0  0  0  0  0  0  0  0
   13.3635   21.3555   75.1025 C   0  0  2  0  0  0  0  0  0  0  0  0
   14.6852   21.0831   74.5427 C   0  0  0  0  0  0  0  0  0  0  0  0
   14.9932   21.6320   73.4543 O   0  0  0  0  0  0  0  0  0  0  0  0
   15.6615   20.2078   75.1860 N   0  0  0  0  0  0  0  0  0  0  0  0
   16.8959   20.0440   74.4977 C   0  0  2  0  0  0  0  0  0  0  0  0
   17.2774   18.7332   73.9961 C   0  0  0  0  0  0  0  0  0  0  0  0
   18.2916   18.7698   73.1683 O   0  0  0  0  0  0  0  0  0  0  0  0
   16.7663   17.4487   74.2292 N   0  0  0  0  0  0  0  0  0  0  0  0
   15.7274   16.9247   75.1068 C   0  0  0  0  0  0  0  0  0  0  0  0
   14.9316   16.0362   74.1578 C   0  0  0  0  0  0  0  0  0  0  0  0
   15.8693   15.6869   73.0368 C   0  0  0  0  0  0  0  0  0  0  0  0
   17.2187   16.2421   73.5194 C   0  0  1  0  0  0  0  0  0  0  0  0
   18.1016   16.4812   72.3836 C   0  0  0  0  0  0  0  0  0  0  0  0
   17.5493   16.5363   71.2255 O   0  0  0  0  0  0  0  0  0  0  0  0
   19.4663   16.6552   72.4055 O   0  0  0  0  0  0  0  0  0  0  0  0
   17.9733   20.5956   75.4459 C   0  0  1  0  0  0  0  0  0  0  0  0
   19.3484   20.5367   74.8303 C   0  0  0  0  0  0  0  0  0  0  0  0
   17.6520   21.9169   75.6649 O   0  0  0  0  0  0  0  0  0  0  0  0
   13.1512   22.8035   75.5178 C   0  0  1  0  0  0  0  0  0  0  0  0
   13.5928   23.8188   74.5338 C   0  0  0  0  0  0  0  0  0  0  0  0
   11.8363   23.0322   75.8877 O   0  0  0  0  0  0  0  0  0  0  0  0
   10.2137   19.0879   77.9325 C   0  0  1  0  0  0  0  0  0  0  0  0
    9.8552   20.5224   78.1751 C   0  0  0  0  0  0  0  0  0  0  0  0
    9.4594   18.5367   76.8835 O   0  0  0  0  0  0  0  0  0  0  0  0
  1  2  1  0
  2  3  1  0
  3  4  1  0
  4  5  1  0
  5  6  1  1
  5  7  1  0
  7  8  2  0
  7  9  1  0
  9 10  1  0
 10 11  1  1
 10 12  1  0
 12 13  2  0
 12 14  1  0
 14 15  1  0
 15 16  1  6
 16 17  1  0
 17 18  2  0
 17 19  1  0
 15 20  1  0
 20 21  2  0
 20 22  1  0
 23 22  1  1
 23 24  1  0
 24 25  2  0
 24 26  1  0
 27 26  1  1
 27 28  1  0
 28 29  2  0
 28 30  1  0
 31 30  1  1
 31 32  1  0
 32 33  2  0
 32 34  1  0
 34 35  1  0
 35 36  1  0
 36 37  1  0
 37 38  1  0
 38 39  1  6
 39 40  2  0
 39 41  1  0
 31 42  1  0
 42 43  1  6
 42 44  1  0
 27 45  1  0
 45 46  1  6
 45 47  1  0
 23 48  1  0
 48 49  1  6
 48 50  1  0
 38 34  1  0
M  CHG  3   6   1  19  -1  41  -1
M  END
>  <shape_align_shape_tanimoto>  (1) 
0.50646757868682413

>  <shape_align_color_tanimoto>  (1) 
0.012262958463614505

>  <metric>  (1) 
shape

>  <metric_score>  (1) 
0.506

>  <template_pid>  (1) 
6I68

>  <template_shape_score>  (1) 
0.506

>  <template_color_score>  (1) 
0.012

>  <template_combo_score>  (1) 
0.259

$$$$
6I68_color_pose
     RDKit          3D

 50 50  0  0  0  0  0  0  0  0999 V2000
   20.7684   19.7452   76.3159 C   0  0  0  0  0  0  0  0  0  0  0  0
   19.5470   20.0821   75.4760 C   0  0  0  0  0  0  0  0  0  0  0  0
   19.0700   18.7500   74.8546 C   0  0  0  0  0  0  0  0  0  0  0  0
   17.8632   18.9647   74.0070 C   0  0  0  0  0  0  0  0  0  0  0  0
   17.2887   17.7775   73.3207 C   0  0  2  0  0  0  0  0  0  0  0  0
   16.1243   18.3204   72.5495 N   0  0  0  0  0  0  0  0  0  0  0  0
   16.7704   16.7075   74.1825 C   0  0  0  0  0  0  0  0  0  0  0  0
   15.4953   16.5662   74.1933 O   0  0  0  0  0  0  0  0  0  0  0  0
   17.4957   15.8179   74.9899 N   0  0  0  0  0  0  0  0  0  0  0  0
   16.8942   14.7842   75.7922 C   0  0  1  0  0  0  0  0  0  0  0  0
   17.4078   13.4049   75.4165 C   0  0  0  0  0  0  0  0  0  0  0  0
   16.9483   14.9902   77.2482 C   0  0  0  0  0  0  0  0  0  0  0  0
   16.4992   14.0550   77.9746 O   0  0  0  0  0  0  0  0  0  0  0  0
   17.4479   16.1256   77.9154 N   0  0  0  0  0  0  0  0  0  0  0  0
   17.4419   16.1956   79.3929 C   0  0  1  0  0  0  0  0  0  0  0  0
   18.8741   16.4313   79.7988 C   0  0  0  0  0  0  0  0  0  0  0  0
   19.0804   16.5081   81.2546 C   0  0  0  0  0  0  0  0  0  0  0  0
   18.2137   16.3141   82.1293 O   0  0  0  0  0  0  0  0  0  0  0  0
   20.3751   16.8310   81.6912 O   0  0  0  0  0  0  0  0  0  0  0  0
   16.5480   17.3160   79.8201 C   0  0  0  0  0  0  0  0  0  0  0  0
   16.3189   17.6364   80.9921 O   0  0  0  0  0  0  0  0  0  0  0  0
   15.9183   18.0637   78.7910 N   0  0  0  0  0  0  0  0  0  0  0  0
   15.0128   19.1964   79.0719 C   0  0  2  0  0  0  0  0  0  0  0  0
   13.6428   18.8368   78.6543 C   0  0  0  0  0  0  0  0  0  0  0  0
   13.4988   17.6733   78.1493 O   0  0  0  0  0  0  0  0  0  0  0  0
   12.5036   19.7157   78.7926 N   0  0  0  0  0  0  0  0  0  0  0  0
   11.2618   19.1794   78.3438 C   0  0  2  0  0  0  0  0  0  0  0  0
   10.6563   19.9756   77.2686 C   0  0  0  0  0  0  0  0  0  0  0  0
    9.6152   19.4298   76.7263 O   0  0  0  0  0  0  0  0  0  0  0  0
   11.0747   21.2342   76.7800 N   0  0  0  0  0  0  0  0  0  0  0  0
   10.3123   21.8154   75.6959 C   0  0  2  0  0  0  0  0  0  0  0  0
   11.0105   22.2238   74.5079 C   0  0  0  0  0  0  0  0  0  0  0  0
   10.2676   22.5101   73.4763 O   0  0  0  0  0  0  0  0  0  0  0  0
   12.3890   22.3770   74.2477 N   0  0  0  0  0  0  0  0  0  0  0  0
   12.8281   22.7446   72.8746 C   0  0  0  0  0  0  0  0  0  0  0  0
   14.2936   22.9753   72.9637 C   0  0  0  0  0  0  0  0  0  0  0  0
   14.7759   22.3030   74.2026 C   0  0  0  0  0  0  0  0  0  0  0  0
   13.5575   22.3004   75.1017 C   0  0  1  0  0  0  0  0  0  0  0  0
   13.6224   23.6076   75.8659 C   0  0  0  0  0  0  0  0  0  0  0  0
   12.8039   24.5501   75.5583 O   0  0  0  0  0  0  0  0  0  0  0  0
   14.5289   23.8282   76.8845 O   0  0  0  0  0  0  0  0  0  0  0  0
    9.4336   22.9484   76.2538 C   0  0  1  0  0  0  0  0  0  0  0  0
    8.6414   23.5827   75.1375 C   0  0  0  0  0  0  0  0  0  0  0  0
    8.5773   22.4113   77.2302 O   0  0  0  0  0  0  0  0  0  0  0  0
   10.2736   18.9882   79.4908 C   0  0  1  0  0  0  0  0  0  0  0  0
   10.7522   17.9530   80.4765 C   0  0  0  0  0  0  0  0  0  0  0  0
    9.9669   20.1550   80.1507 O   0  0  0  0  0  0  0  0  0  0  0  0
   15.5935   20.3695   78.3060 C   0  0  1  0  0  0  0  0  0  0  0  0
   17.0461   20.5406   78.7660 C   0  0  0  0  0  0  0  0  0  0  0  0
   15.6275   20.0458   76.9363 O   0  0  0  0  0  0  0  0  0  0  0  0
  1  2  1  0
  2  3  1  0
  3  4  1  0
  4  5  1  0
  5  6  1  6
  5  7  1  0
  7  8  2  0
  7  9  1  0
  9 10  1  0
 10 11  1  1
 10 12  1  0
 12 13  2  0
 12 14  1  0
 14 15  1  0
 15 16  1  6
 16 17  1  0
 17 18  2  0
 17 19  1  0
 15 20  1  0
 20 21  2  0
 20 22  1  0
 23 22  1  6
 23 24  1  0
 24 25  2  0
 24 26  1  0
 27 26  1  1
 27 28  1  0
 28 29  2  0
 28 30  1  0
 31 30  1  1
 31 32  1  0
 32 33  2  0
 32 34  1  0
 34 35  1  0
 35 36  1  0
 36 37  1  0
 37 38  1  0
 38 39  1  1
 39 40  2  0
 39 41  1  0
 31 42  1  0
 42 43  1  6
 42 44  1  0
 27 45  1  0
 45 46  1  1
 45 47  1  0
 23 48  1  0
 48 49  1  1
 48 50  1  0
 38 34  1  0
M  CHG  3   6   1  19  -1  41  -1
M  END
>  <shape_align_shape_tanimoto>  (2) 
0.43361396310316003

>  <shape_align_color_tanimoto>  (2) 
0.069358312827801596

>  <metric>  (2) 
color

>  <metric_score>  (2) 
0.069

>  <template_pid>  (2) 
6I68

>  <template_shape_score>  (2) 
0.434

>  <template_color_score>  (2) 
0.069

>  <template_combo_score>  (2) 
0.251

$$$$
6I68_combo_pose
     RDKit          3D

 50 50  0  0  0  0  0  0  0  0999 V2000
   24.9646   16.5443   83.8499 C   0  0  0  0  0  0  0  0  0  0  0  0
   23.7900   16.6285   82.8788 C   0  0  0  0  0  0  0  0  0  0  0  0
   23.0944   15.3101   82.6784 C   0  0  0  0  0  0  0  0  0  0  0  0
   21.9820   15.4772   81.6831 C   0  0  0  0  0  0  0  0  0  0  0  0
   20.9805   16.4750   82.1742 C   0  0  2  0  0  0  0  0  0  0  0  0
   20.4257   16.0364   83.4344 N   0  0  0  0  0  0  0  0  0  0  0  0
   19.8405   16.5957   81.2035 C   0  0  0  0  0  0  0  0  0  0  0  0
   20.1805   17.1020   80.0802 O   0  0  0  0  0  0  0  0  0  0  0  0
   18.5023   16.2076   81.4473 N   0  0  0  0  0  0  0  0  0  0  0  0
   17.5612   16.4181   80.3786 C   0  0  1  0  0  0  0  0  0  0  0  0
   16.8161   15.1823   80.0049 C   0  0  0  0  0  0  0  0  0  0  0  0
   16.5939   17.5393   80.6695 C   0  0  0  0  0  0  0  0  0  0  0  0
   16.4976   18.0339   81.8380 O   0  0  0  0  0  0  0  0  0  0  0  0
   15.8285   17.9850   79.5677 N   0  0  0  0  0  0  0  0  0  0  0  0
   14.8460   19.1143   79.8223 C   0  0  1  0  0  0  0  0  0  0  0  0
   15.5752   20.3838   79.5058 C   0  0  0  0  0  0  0  0  0  0  0  0
   14.8245   21.6076   79.7585 C   0  0  0  0  0  0  0  0  0  0  0  0
   13.7768   21.8138   80.3456 O   0  0  0  0  0  0  0  0  0  0  0  0
   15.4399   22.7856   79.2042 O   0  0  0  0  0  0  0  0  0  0  0  0
   13.7702   18.7402   78.8792 C   0  0  0  0  0  0  0  0  0  0  0  0
   13.9983   17.6334   78.2487 O   0  0  0  0  0  0  0  0  0  0  0  0
   12.5906   19.3898   78.5775 N   0  0  0  0  0  0  0  0  0  0  0  0
   11.6446   18.8768   77.5803 C   0  0  2  0  0  0  0  0  0  0  0  0
   11.9119   19.6570   76.2894 C   0  0  0  0  0  0  0  0  0  0  0  0
   11.1973   19.5106   75.2736 O   0  0  0  0  0  0  0  0  0  0  0  0
   13.0287   20.5759   76.2789 N   0  0  0  0  0  0  0  0  0  0  0  0
   13.3635   21.3555   75.1025 C   0  0  2  0  0  0  0  0  0  0  0  0
   14.6852   21.0831   74.5427 C   0  0  0  0  0  0  0  0  0  0  0  0
   14.9932   21.6320   73.4543 O   0  0  0  0  0  0  0  0  0  0  0  0
   15.6615   20.2078   75.1860 N   0  0  0  0  0  0  0  0  0  0  0  0
   16.8959   20.0440   74.4977 C   0  0  2  0  0  0  0  0  0  0  0  0
   17.2774   18.7332   73.9961 C   0  0  0  0  0  0  0  0  0  0  0  0
   18.2916   18.7698   73.1683 O   0  0  0  0  0  0  0  0  0  0  0  0
   16.7663   17.4487   74.2292 N   0  0  0  0  0  0  0  0  0  0  0  0
   15.7274   16.9247   75.1068 C   0  0  0  0  0  0  0  0  0  0  0  0
   14.9316   16.0362   74.1578 C   0  0  0  0  0  0  0  0  0  0  0  0
   15.8693   15.6869   73.0368 C   0  0  0  0  0  0  0  0  0  0  0  0
   17.2187   16.2421   73.5194 C   0  0  1  0  0  0  0  0  0  0  0  0
   18.1016   16.4812   72.3836 C   0  0  0  0  0  0  0  0  0  0  0  0
   17.5493   16.5363   71.2255 O   0  0  0  0  0  0  0  0  0  0  0  0
   19.4663   16.6552   72.4055 O   0  0  0  0  0  0  0  0  0  0  0  0
   17.9733   20.5956   75.4459 C   0  0  1  0  0  0  0  0  0  0  0  0
   19.3484   20.5367   74.8303 C   0  0  0  0  0  0  0  0  0  0  0  0
   17.6520   21.9169   75.6649 O   0  0  0  0  0  0  0  0  0  0  0  0
   13.1512   22.8035   75.5178 C   0  0  1  0  0  0  0  0  0  0  0  0
   13.5928   23.8188   74.5338 C   0  0  0  0  0  0  0  0  0  0  0  0
   11.8363   23.0322   75.8877 O   0  0  0  0  0  0  0  0  0  0  0  0
   10.2137   19.0879   77.9325 C   0  0  1  0  0  0  0  0  0  0  0  0
    9.8552   20.5224   78.1751 C   0  0  0  0  0  0  0  0  0  0  0  0
    9.4594   18.5367   76.8835 O   0  0  0  0  0  0  0  0  0  0  0  0
  1  2  1  0
  2  3  1  0
  3  4  1  0
  4  5  1  0
  5  6  1  1
  5  7  1  0
  7  8  2  0
  7  9  1  0
  9 10  1  0
 10 11  1  1
 10 12  1  0
 12 13  2  0
 12 14  1  0
 14 15  1  0
 15 16  1  6
 16 17  1  0
 17 18  2  0
 17 19  1  0
 15 20  1  0
 20 21  2  0
 20 22  1  0
 23 22  1  1
 23 24  1  0
 24 25  2  0
 24 26  1  0
 27 26  1  1
 27 28  1  0
 28 29  2  0
 28 30  1  0
 31 30  1  1
 31 32  1  0
 32 33  2  0
 32 34  1  0
 34 35  1  0
 35 36  1  0
 36 37  1  0
 37 38  1  0
 38 39  1  6
 39 40  2  0
 39 41  1  0
 31 42  1  0
 42 43  1  6
 42 44  1  0
 27 45  1  0
 45 46  1  6
 45 47  1  0
 23 48  1  0
 48 49  1  6
 48 50  1  0
 38 34  1  0
M  CHG  3   6   1  19  -1  41  -1
M  END
>  <shape_align_shape_tanimoto>  (3) 
0.50646757868682413

>  <shape_align_color_tanimoto>  (3) 
0.012262958463614505

>  <metric>  (3) 
combo

>  <metric_score>  (3) 
0.259

>  <template_pid>  (3) 
6I68

>  <template_shape_score>  (3) 
0.506

>  <template_color_score>  (3) 
0.012

>  <template_combo_score>  (3) 
0.259

$$$$
