4U4S_shape_pose
     RDKit          3D

 14 15  0  0  0  0  0  0  0  0999 V2000
   67.6954   29.5613   63.3729 C   0  0  0  0  0  0  0  0  0  0  0  0
   67.9203   28.1379   62.9654 C   0  0  0  0  0  0  0  0  0  0  0  0
   69.2620   27.9011   62.4636 N   0  0  0  0  0  0  0  0  0  0  0  0
   70.4470   27.9357   63.3103 C   0  0  0  0  0  0  0  0  0  0  0  0
   71.0897   26.6429   63.3660 N   0  0  0  0  0  0  0  0  0  0  0  0
   71.3124   25.9116   61.8466 S   0  0  0  0  0  0  0  0  0  0  0  0
   72.7553   26.0258   61.4258 O   0  0  0  0  0  0  0  0  0  0  0  0
   70.9419   24.4505   61.8540 O   0  0  0  0  0  0  0  0  0  0  0  0
   70.3357   26.6989   60.6312 C   0  0  0  0  0  0  0  0  0  0  0  0
   70.4436   26.4484   59.2786 C   0  0  0  0  0  0  0  0  0  0  0  0
   69.6296   27.1080   58.4122 N   0  0  0  0  0  0  0  0  0  0  0  0
   68.7127   28.0037   58.8247 C   0  0  0  0  0  0  0  0  0  0  0  0
   68.5619   28.2928   60.1642 C   0  0  0  0  0  0  0  0  0  0  0  0
   69.3939   27.6216   61.0662 C   0  0  0  0  0  0  0  0  0  0  0  0
  1  2  1  0
  2  3  1  0
  3  4  1  0
  4  5  1  0
  5  6  1  0
  6  7  2  0
  6  8  2  0
  6  9  1  0
  9 10  2  0
 10 11  1  0
 11 12  2  0
 12 13  1  0
 13 14  2  0
 14  3  1  0
 14  9  1  0
M  END
>  <shape_align_shape_tanimoto>  (1) 
0.45786284838881769

>  <shape_align_color_tanimoto>  (1) 
0.066325240475384434

>  <metric>  (1) 
shape

>  <metric_score>  (1) 
0.458

>  <template_pid>  (1) 
4U4S

>  <template_shape_score>  (1) 
0.458

>  <template_color_score>  (1) 
0.066

>  <template_combo_score>  (1) 
0.262

$$$$
4U4S_color_pose
     RDKit          3D

 14 15  0  0  0  0  0  0  0  0999 V2000
   69.2595   27.1320   58.6034 C   0  0  0  0  0  0  0  0  0  0  0  0
   70.3328   27.5804   59.5659 C   0  0  0  0  0  0  0  0  0  0  0  0
   70.2920   26.7930   60.8078 N   0  0  0  0  0  0  0  0  0  0  0  0
   70.6483   25.4026   60.7624 C   0  0  0  0  0  0  0  0  0  0  0  0
   71.3447   24.8646   61.8615 N   0  0  0  0  0  0  0  0  0  0  0  0
   71.6988   25.8970   63.1632 S   0  0  0  0  0  0  0  0  0  0  0  0
   73.0054   26.6064   62.8232 O   0  0  0  0  0  0  0  0  0  0  0  0
   71.8239   25.1695   64.4583 O   0  0  0  0  0  0  0  0  0  0  0  0
   70.4788   27.1560   63.2118 C   0  0  0  0  0  0  0  0  0  0  0  0
   70.0949   27.8059   64.3375 C   0  0  0  0  0  0  0  0  0  0  0  0
   69.1434   28.7656   64.2448 N   0  0  0  0  0  0  0  0  0  0  0  0
   68.5576   29.1032   63.0652 C   0  0  0  0  0  0  0  0  0  0  0  0
   68.9200   28.4621   61.8808 C   0  0  0  0  0  0  0  0  0  0  0  0
   69.8921   27.4828   61.9828 C   0  0  0  0  0  0  0  0  0  0  0  0
  1  2  1  0
  2  3  1  0
  3  4  1  0
  4  5  1  0
  5  6  1  0
  6  7  2  0
  6  8  2  0
  6  9  1  0
  9 10  2  0
 10 11  1  0
 11 12  2  0
 12 13  1  0
 13 14  2  0
 14  3  1  0
 14  9  1  0
M  END
>  <shape_align_shape_tanimoto>  (2) 
0.43147715435139561

>  <shape_align_color_tanimoto>  (2) 
0.12274282709652554

>  <metric>  (2) 
color

>  <metric_score>  (2) 
0.123

>  <template_pid>  (2) 
4U4S

>  <template_shape_score>  (2) 
0.431

>  <template_color_score>  (2) 
0.123

>  <template_combo_score>  (2) 
0.277

$$$$
4U4S_combo_pose
     RDKit          3D

 14 15  0  0  0  0  0  0  0  0999 V2000
   69.2595   27.1320   58.6034 C   0  0  0  0  0  0  0  0  0  0  0  0
   70.3328   27.5804   59.5659 C   0  0  0  0  0  0  0  0  0  0  0  0
   70.2920   26.7930   60.8078 N   0  0  0  0  0  0  0  0  0  0  0  0
   70.6483   25.4026   60.7624 C   0  0  0  0  0  0  0  0  0  0  0  0
   71.3447   24.8646   61.8615 N   0  0  0  0  0  0  0  0  0  0  0  0
   71.6988   25.8970   63.1632 S   0  0  0  0  0  0  0  0  0  0  0  0
   73.0054   26.6064   62.8232 O   0  0  0  0  0  0  0  0  0  0  0  0
   71.8239   25.1695   64.4583 O   0  0  0  0  0  0  0  0  0  0  0  0
   70.4788   27.1560   63.2118 C   0  0  0  0  0  0  0  0  0  0  0  0
   70.0949   27.8059   64.3375 C   0  0  0  0  0  0  0  0  0  0  0  0
   69.1434   28.7656   64.2448 N   0  0  0  0  0  0  0  0  0  0  0  0
   68.5576   29.1032   63.0652 C   0  0  0  0  0  0  0  0  0  0  0  0
   68.9200   28.4621   61.8808 C   0  0  0  0  0  0  0  0  0  0  0  0
   69.8921   27.4828   61.9828 C   0  0  0  0  0  0  0  0  0  0  0  0
  1  2  1  0
  2  3  1  0
  3  4  1  0
  4  5  1  0
  5  6  1  0
  6  7  2  0
  6  8  2  0
  6  9  1  0
  9 10  2  0
 10 11  1  0
 11 12  2  0
 12 13  1  0
 13 14  2  0
 14  3  1  0
 14  9  1  0
M  END
>  <shape_align_shape_tanimoto>  (3) 
0.43147715435139561

>  <shape_align_color_tanimoto>  (3) 
0.12274282709652554

>  <metric>  (3) 
combo

>  <metric_score>  (3) 
0.277

>  <template_pid>  (3) 
4U4S

>  <template_shape_score>  (3) 
0.431

>  <template_color_score>  (3) 
0.123

>  <template_combo_score>  (3) 
0.277

$$$$
