6PY0_shape_pose
     RDKit          3D

 21 21  0  0  0  0  0  0  0  0999 V2000
    2.9082    5.4320    1.1977 C   0  0  0  0  0  0  0  0  0  0  0  0
    1.9409    5.4515    0.0888 C   0  0  0  0  0  0  0  0  0  0  0  0
    1.1663    4.3090   -0.3608 C   0  0  0  0  0  0  0  0  0  0  0  0
    1.2304    3.1008    0.1677 C   0  0  0  0  0  0  0  0  0  0  0  0
    0.4627    1.9361   -0.2651 C   0  0  0  0  0  0  0  0  0  0  0  0
   -0.4014    1.5296    0.9361 C   0  0  1  0  0  0  0  0  0  0  0  0
    0.3953    0.9603    2.0551 C   0  0  0  0  0  0  0  0  0  0  0  0
   -1.0649    2.8214    1.3543 C   0  0  0  0  0  0  0  0  0  0  0  0
   -1.8463    3.4602    0.2519 C   0  0  0  0  0  0  0  0  0  0  0  0
   -1.7190    2.8960   -1.1009 C   0  0  0  0  0  0  0  0  0  0  0  0
   -0.4793    2.0844   -1.3929 C   0  0  0  0  0  0  0  0  0  0  0  0
   -0.9947    0.6505   -1.6442 C   0  0  0  0  0  0  0  0  0  0  0  0
    0.1735    2.5036   -2.7045 C   0  0  0  0  0  0  0  0  0  0  0  0
    1.7730    6.6147   -0.5454 C   0  0  0  0  0  0  0  0  0  0  0  0
    2.5031    7.8257   -0.1763 C   0  0  0  0  0  0  0  0  0  0  0  0
    2.2927    8.9478   -0.8411 C   0  0  0  0  0  0  0  0  0  0  0  0
    2.9636   10.2079   -0.5576 C   0  0  0  0  0  0  0  0  0  0  0  0
    3.9646   10.3971    0.5128 C   0  0  0  0  0  0  0  0  0  0  0  0
    2.6745   11.2862   -1.2970 C   0  0  0  0  0  0  0  0  0  0  0  0
    3.2772   12.6017   -1.1128 C   0  0  0  0  0  0  0  0  0  0  0  0
    2.2925   13.5733   -0.8159 O   0  0  0  0  0  0  0  0  0  0  0  0
  1  2  1  0
  2  3  1  0
  3  4  2  0
  4  5  1  0
  5  6  1  0
  6  7  1  1
  6  8  1  0
  8  9  1  0
  9 10  1  0
 10 11  1  0
 11 12  1  0
 11 13  1  0
  2 14  2  0
 14 15  1  0
 15 16  2  0
 16 17  1  0
 17 18  1  0
 17 19  2  0
 19 20  1  0
 20 21  1  0
 11  5  1  0
M  END
>  <shape_align_shape_tanimoto>  (1) 
0.22786417033896131

>  <shape_align_color_tanimoto>  (1) 
0.0076915762251465788

>  <metric>  (1) 
shape

>  <metric_score>  (1) 
0.228

>  <template_pid>  (1) 
6PY0

>  <template_shape_score>  (1) 
0.228

>  <template_color_score>  (1) 
0.008

>  <template_combo_score>  (1) 
0.118

$$$$
6PY0_color_pose
     RDKit          3D

 21 21  0  0  0  0  0  0  0  0999 V2000
    2.8169    6.5053    1.3526 C   0  0  0  0  0  0  0  0  0  0  0  0
    2.4992    7.0433    0.0218 C   0  0  0  0  0  0  0  0  0  0  0  0
    2.9217    8.3410   -0.4831 C   0  0  0  0  0  0  0  0  0  0  0  0
    3.6428    9.2146    0.1679 C   0  0  0  0  0  0  0  0  0  0  0  0
    4.0913   10.5344   -0.3001 C   0  0  0  0  0  0  0  0  0  0  0  0
    5.6304   10.5846   -0.3554 C   0  0  1  0  0  0  0  0  0  0  0  0
    6.2307   10.7331    0.9918 C   0  0  0  0  0  0  0  0  0  0  0  0
    6.0412    9.3363   -1.0772 C   0  0  0  0  0  0  0  0  0  0  0  0
    5.3586    9.1653   -2.3822 C   0  0  0  0  0  0  0  0  0  0  0  0
    4.3508   10.1762   -2.7655 C   0  0  0  0  0  0  0  0  0  0  0  0
    3.6707   10.9335   -1.6812 C   0  0  0  0  0  0  0  0  0  0  0  0
    4.1691   12.3949   -1.8247 C   0  0  0  0  0  0  0  0  0  0  0  0
    2.1818   10.9806   -1.8626 C   0  0  0  0  0  0  0  0  0  0  0  0
    1.7549    6.2430   -0.7705 C   0  0  0  0  0  0  0  0  0  0  0  0
    1.3028    4.9300   -0.3203 C   0  0  0  0  0  0  0  0  0  0  0  0
    0.5781    4.1762   -1.1178 C   0  0  0  0  0  0  0  0  0  0  0  0
    0.0733    2.8558   -0.7790 C   0  0  0  0  0  0  0  0  0  0  0  0
    0.3128    2.1817    0.5185 C   0  0  0  0  0  0  0  0  0  0  0  0
   -0.6540    2.1798   -1.6687 C   0  0  0  0  0  0  0  0  0  0  0  0
   -1.2137    0.8476   -1.4410 C   0  0  0  0  0  0  0  0  0  0  0  0
   -2.6228    0.9060   -1.5555 O   0  0  0  0  0  0  0  0  0  0  0  0
  1  2  1  0
  2  3  1  0
  3  4  2  0
  4  5  1  0
  5  6  1  0
  6  7  1  1
  6  8  1  0
  8  9  1  0
  9 10  1  0
 10 11  1  0
 11 12  1  0
 11 13  1  0
  2 14  2  0
 14 15  1  0
 15 16  2  0
 16 17  1  0
 17 18  1  0
 17 19  2  0
 19 20  1  0
 20 21  1  0
 11  5  1  0
M  END
>  <shape_align_shape_tanimoto>  (2) 
0.21535658417908157

>  <shape_align_color_tanimoto>  (2) 
0.026751372589744467

>  <metric>  (2) 
color

>  <metric_score>  (2) 
0.027

>  <template_pid>  (2) 
6PY0

>  <template_shape_score>  (2) 
0.215

>  <template_color_score>  (2) 
0.027

>  <template_combo_score>  (2) 
0.121

$$$$
6PY0_combo_pose
     RDKit          3D

 21 21  0  0  0  0  0  0  0  0999 V2000
    2.8169    6.5053    1.3526 C   0  0  0  0  0  0  0  0  0  0  0  0
    2.4992    7.0433    0.0218 C   0  0  0  0  0  0  0  0  0  0  0  0
    2.9217    8.3410   -0.4831 C   0  0  0  0  0  0  0  0  0  0  0  0
    3.6428    9.2146    0.1679 C   0  0  0  0  0  0  0  0  0  0  0  0
    4.0913   10.5344   -0.3001 C   0  0  0  0  0  0  0  0  0  0  0  0
    5.6304   10.5846   -0.3554 C   0  0  1  0  0  0  0  0  0  0  0  0
    6.2307   10.7331    0.9918 C   0  0  0  0  0  0  0  0  0  0  0  0
    6.0412    9.3363   -1.0772 C   0  0  0  0  0  0  0  0  0  0  0  0
    5.3586    9.1653   -2.3822 C   0  0  0  0  0  0  0  0  0  0  0  0
    4.3508   10.1762   -2.7655 C   0  0  0  0  0  0  0  0  0  0  0  0
    3.6707   10.9335   -1.6812 C   0  0  0  0  0  0  0  0  0  0  0  0
    4.1691   12.3949   -1.8247 C   0  0  0  0  0  0  0  0  0  0  0  0
    2.1818   10.9806   -1.8626 C   0  0  0  0  0  0  0  0  0  0  0  0
    1.7549    6.2430   -0.7705 C   0  0  0  0  0  0  0  0  0  0  0  0
    1.3028    4.9300   -0.3203 C   0  0  0  0  0  0  0  0  0  0  0  0
    0.5781    4.1762   -1.1178 C   0  0  0  0  0  0  0  0  0  0  0  0
    0.0733    2.8558   -0.7790 C   0  0  0  0  0  0  0  0  0  0  0  0
    0.3128    2.1817    0.5185 C   0  0  0  0  0  0  0  0  0  0  0  0
   -0.6540    2.1798   -1.6687 C   0  0  0  0  0  0  0  0  0  0  0  0
   -1.2137    0.8476   -1.4410 C   0  0  0  0  0  0  0  0  0  0  0  0
   -2.6228    0.9060   -1.5555 O   0  0  0  0  0  0  0  0  0  0  0  0
  1  2  1  0
  2  3  1  0
  3  4  2  0
  4  5  1  0
  5  6  1  0
  6  7  1  1
  6  8  1  0
  8  9  1  0
  9 10  1  0
 10 11  1  0
 11 12  1  0
 11 13  1  0
  2 14  2  0
 14 15  1  0
 15 16  2  0
 16 17  1  0
 17 18  1  0
 17 19  2  0
 19 20  1  0
 20 21  1  0
 11  5  1  0
M  END
>  <shape_align_shape_tanimoto>  (3) 
0.21535658417908157

>  <shape_align_color_tanimoto>  (3) 
0.026751372589744467

>  <metric>  (3) 
combo

>  <metric_score>  (3) 
0.121

>  <template_pid>  (3) 
6PY0

>  <template_shape_score>  (3) 
0.215

>  <template_color_score>  (3) 
0.027

>  <template_combo_score>  (3) 
0.121

$$$$
