5W4R_shape_pose
     RDKit          3D

 42 47  0  0  0  0  0  0  0  0999 V2000
   19.8792   55.8609   34.2024 C   0  0  0  0  0  0  0  0  0  0  0  0
   21.1115   55.4496   33.6498 O   0  0  0  0  0  0  0  0  0  0  0  0
   21.9297   56.3453   32.9796 C   0  0  0  0  0  0  0  0  0  0  0  0
   21.5207   57.6432   32.8602 N   0  0  0  0  0  0  0  0  0  0  0  0
   22.2568   58.5750   32.2248 C   0  0  0  0  0  0  0  0  0  0  0  0
   21.8455   59.8900   32.1020 C   0  0  0  0  0  0  0  0  0  0  0  0
   22.6567   60.8121   31.4294 C   0  0  0  0  0  0  0  0  0  0  0  0
   23.8599   60.4454   30.8837 C   0  0  0  0  0  0  0  0  0  0  0  0
   24.7321   61.4436   30.1623 C   0  0  1  0  0  0  0  0  0  0  0  0
   25.5018   62.0000   31.2253 O   0  0  0  0  0  0  0  0  0  0  0  0
   25.6865   60.7958   29.2484 C   0  0  0  0  0  0  0  0  0  0  0  0
   27.0850   60.8699   29.3421 C   0  0  0  0  0  0  0  0  0  0  0  0
   27.6670   60.1758   28.3798 N   0  0  0  0  0  0  0  0  0  0  0  0
   26.6829   59.6367   27.6412 C   0  0  0  0  0  0  0  0  0  0  0  0
   25.4781   60.0135   28.1690 N   0  0  0  0  0  0  0  0  0  0  0  0
   24.2256   59.6150   27.6280 C   0  0  0  0  0  0  0  0  0  0  0  0
   23.9893   62.6040   29.6230 C   0  0  0  0  0  0  0  0  0  0  0  0
   24.9601   63.5392   28.9240 C   0  0  0  0  0  0  0  0  0  0  0  0
   24.2446   64.8557   28.6898 C   0  0  0  0  0  0  0  0  0  0  0  0
   22.9075   64.6625   28.1411 N   0  0  0  0  0  0  0  0  0  0  0  0
   22.4092   65.4335   27.0584 C   0  0  0  0  0  0  0  0  0  0  0  0
   23.2123   66.4917   26.4094 C   0  0  0  0  0  0  0  0  0  0  0  0
   21.2328   65.2517   26.5858 O   0  0  0  0  0  0  0  0  0  0  0  0
   22.0195   63.6364   28.7108 C   0  0  0  0  0  0  0  0  0  0  0  0
   22.8656   62.3489   28.6926 C   0  0  0  0  0  0  0  0  0  0  0  0
   24.2509   59.1296   31.0170 C   0  0  0  0  0  0  0  0  0  0  0  0
   23.4658   58.2032   31.6762 C   0  0  0  0  0  0  0  0  0  0  0  0
   23.8918   56.8745   31.7940 C   0  0  0  0  0  0  0  0  0  0  0  0
   25.4411   56.4974   31.0535 Cl  0  0  0  0  0  0  0  0  0  0  0  0
   23.1296   55.9281   32.4473 C   0  0  0  0  0  0  0  0  0  0  0  0
   23.6297   54.5342   32.5421 C   0  0  0  0  0  0  0  0  0  0  0  0
   24.1709   54.1841   33.8583 C   0  0  0  0  0  0  0  0  0  0  0  0
   23.4300   53.5515   34.8513 C   0  0  0  0  0  0  0  0  0  0  0  0
   23.9653   53.2350   36.0857 C   0  0  0  0  0  0  0  0  0  0  0  0
   25.2707   53.5304   36.4025 C   0  0  0  0  0  0  0  0  0  0  0  0
   25.8793   53.2308   37.6489 N   0  0  0  0  0  0  0  0  0  0  0  0
   25.3949   53.3263   38.8939 C   0  0  0  0  0  0  0  0  0  0  0  0
   26.3688   52.9166   39.8065 C   0  0  0  0  0  0  0  0  0  0  0  0
   27.4580   52.5746   39.0139 C   0  0  0  0  0  0  0  0  0  0  0  0
   27.1335   52.7743   37.7190 N   0  0  0  0  0  0  0  0  0  0  0  0
   26.0269   54.1614   35.4263 C   0  0  0  0  0  0  0  0  0  0  0  0
   25.4885   54.4744   34.1984 C   0  0  0  0  0  0  0  0  0  0  0  0
  1  2  1  0
  2  3  1  0
  3  4  2  0
  4  5  1  0
  5  6  2  0
  6  7  1  0
  7  8  2  0
  8  9  1  0
  9 10  1  1
  9 11  1  0
 11 12  2  0
 12 13  1  0
 13 14  2  0
 14 15  1  0
 15 16  1  0
  9 17  1  0
 17 18  1  0
 18 19  1  0
 19 20  1  0
 20 21  1  0
 21 22  1  0
 21 23  2  0
 20 24  1  0
 24 25  1  0
  8 26  1  0
 26 27  2  0
 27 28  1  0
 28 29  1  0
 28 30  2  0
 30 31  1  0
 31 32  1  0
 32 33  2  0
 33 34  1  0
 34 35  2  0
 35 36  1  0
 36 37  1  0
 37 38  2  0
 38 39  1  0
 39 40  2  0
 35 41  1  0
 41 42  2  0
 30  3  1  0
 42 32  1  0
 27  5  1  0
 40 36  1  0
 15 11  1  0
 25 17  1  0
M  END
>  <shape_align_shape_tanimoto>  (1) 
0.34146600126684135

>  <shape_align_color_tanimoto>  (1) 
0.016958218244970576

>  <metric>  (1) 
shape

>  <metric_score>  (1) 
0.341

>  <template_pid>  (1) 
5W4R

>  <template_shape_score>  (1) 
0.341

>  <template_color_score>  (1) 
0.017

>  <template_combo_score>  (1) 
0.179

$$$$
5W4R_color_pose
     RDKit          3D

 42 47  0  0  0  0  0  0  0  0999 V2000
   26.7491   60.8995   27.2194 C   0  0  0  0  0  0  0  0  0  0  0  0
   25.6163   60.7228   28.0444 O   0  0  0  0  0  0  0  0  0  0  0  0
   25.5829   59.8074   29.0802 C   0  0  0  0  0  0  0  0  0  0  0  0
   26.6985   59.0581   29.2920 N   0  0  0  0  0  0  0  0  0  0  0  0
   26.7675   58.1482   30.2635 C   0  0  0  0  0  0  0  0  0  0  0  0
   27.9045   57.3964   30.4683 C   0  0  0  0  0  0  0  0  0  0  0  0
   27.9295   56.4683   31.4862 C   0  0  0  0  0  0  0  0  0  0  0  0
   26.8388   56.2552   32.3287 C   0  0  0  0  0  0  0  0  0  0  0  0
   26.8830   55.2525   33.4332 C   0  0  1  0  0  0  0  0  0  0  0  0
   25.5114   55.0176   33.7437 O   0  0  0  0  0  0  0  0  0  0  0  0
   27.3904   53.9535   32.9955 C   0  0  0  0  0  0  0  0  0  0  0  0
   28.7291   53.5892   33.0476 C   0  0  0  0  0  0  0  0  0  0  0  0
   28.8903   52.3378   32.5730 N   0  0  0  0  0  0  0  0  0  0  0  0
   27.6675   51.9147   32.2244 C   0  0  0  0  0  0  0  0  0  0  0  0
   26.7604   52.8791   32.4747 N   0  0  0  0  0  0  0  0  0  0  0  0
   25.3437   52.7657   32.2154 C   0  0  0  0  0  0  0  0  0  0  0  0
   27.3924   55.8385   34.6962 C   0  0  0  0  0  0  0  0  0  0  0  0
   28.7384   56.4184   34.7585 C   0  0  0  0  0  0  0  0  0  0  0  0
   29.6433   55.7635   35.8189 C   0  0  0  0  0  0  0  0  0  0  0  0
   28.9665   56.0705   37.0833 N   0  0  0  0  0  0  0  0  0  0  0  0
   29.6539   56.6340   38.1906 C   0  0  0  0  0  0  0  0  0  0  0  0
   28.8942   56.9101   39.4192 C   0  0  0  0  0  0  0  0  0  0  0  0
   30.8784   56.8722   38.0743 O   0  0  0  0  0  0  0  0  0  0  0  0
   27.5509   55.7638   37.1322 C   0  0  0  0  0  0  0  0  0  0  0  0
   27.1985   54.9205   35.8952 C   0  0  0  0  0  0  0  0  0  0  0  0
   25.7285   57.0375   32.0747 C   0  0  0  0  0  0  0  0  0  0  0  0
   25.6726   57.9723   31.0663 C   0  0  0  0  0  0  0  0  0  0  0  0
   24.5140   58.7291   30.8700 C   0  0  0  0  0  0  0  0  0  0  0  0
   23.1832   58.4172   31.9447 Cl  0  0  0  0  0  0  0  0  0  0  0  0
   24.4516   59.6801   29.8500 C   0  0  0  0  0  0  0  0  0  0  0  0
   23.2187   60.4761   29.6598 C   0  0  0  0  0  0  0  0  0  0  0  0
   23.3675   61.8532   30.1781 C   0  0  0  0  0  0  0  0  0  0  0  0
   23.7265   62.9356   29.4124 C   0  0  0  0  0  0  0  0  0  0  0  0
   23.8682   64.2139   29.9100 C   0  0  0  0  0  0  0  0  0  0  0  0
   23.6478   64.4717   31.2438 C   0  0  0  0  0  0  0  0  0  0  0  0
   23.8050   65.7997   31.7171 N   0  0  0  0  0  0  0  0  0  0  0  0
   24.9301   66.1952   32.3730 C   0  0  0  0  0  0  0  0  0  0  0  0
   24.7927   67.5373   32.7103 C   0  0  0  0  0  0  0  0  0  0  0  0
   23.5500   67.9096   32.2287 C   0  0  0  0  0  0  0  0  0  0  0  0
   22.9891   66.8368   31.6389 N   0  0  0  0  0  0  0  0  0  0  0  0
   23.2860   63.4105   32.0402 C   0  0  0  0  0  0  0  0  0  0  0  0
   23.1437   62.1192   31.5343 C   0  0  0  0  0  0  0  0  0  0  0  0
  1  2  1  0
  2  3  1  0
  3  4  2  0
  4  5  1  0
  5  6  2  0
  6  7  1  0
  7  8  2  0
  8  9  1  0
  9 10  1  1
  9 11  1  0
 11 12  2  0
 12 13  1  0
 13 14  2  0
 14 15  1  0
 15 16  1  0
  9 17  1  0
 17 18  1  0
 18 19  1  0
 19 20  1  0
 20 21  1  0
 21 22  1  0
 21 23  2  0
 20 24  1  0
 24 25  1  0
  8 26  1  0
 26 27  2  0
 27 28  1  0
 28 29  1  0
 28 30  2  0
 30 31  1  0
 31 32  1  0
 32 33  2  0
 33 34  1  0
 34 35  2  0
 35 36  1  0
 36 37  1  0
 37 38  2  0
 38 39  1  0
 39 40  2  0
 35 41  1  0
 41 42  2  0
 30  3  1  0
 42 32  1  0
 27  5  1  0
 40 36  1  0
 15 11  1  0
 25 17  1  0
M  END
>  <shape_align_shape_tanimoto>  (2) 
0.28862531121798835

>  <shape_align_color_tanimoto>  (2) 
0.065248364016701754

>  <metric>  (2) 
color

>  <metric_score>  (2) 
0.065

>  <template_pid>  (2) 
5W4R

>  <template_shape_score>  (2) 
0.289

>  <template_color_score>  (2) 
0.065

>  <template_combo_score>  (2) 
0.177

$$$$
5W4R_combo_pose
     RDKit          3D

 42 47  0  0  0  0  0  0  0  0999 V2000
   22.0513   63.1019   35.6379 C   0  0  0  0  0  0  0  0  0  0  0  0
   22.7125   62.7838   34.4337 O   0  0  0  0  0  0  0  0  0  0  0  0
   23.3374   61.5574   34.2661 C   0  0  0  0  0  0  0  0  0  0  0  0
   23.3108   60.6664   35.2622 N   0  0  0  0  0  0  0  0  0  0  0  0
   23.8959   59.4628   35.1632 C   0  0  0  0  0  0  0  0  0  0  0  0
   23.8650   58.5525   36.1892 C   0  0  0  0  0  0  0  0  0  0  0  0
   24.4728   57.3181   36.0703 C   0  0  0  0  0  0  0  0  0  0  0  0
   25.1463   56.9267   34.9156 C   0  0  0  0  0  0  0  0  0  0  0  0
   25.7874   55.5958   34.8060 C   0  0  1  0  0  0  0  0  0  0  0  0
   26.5817   55.4427   35.9655 O   0  0  0  0  0  0  0  0  0  0  0  0
   24.6945   54.5992   34.7687 C   0  0  0  0  0  0  0  0  0  0  0  0
   23.6960   54.6506   33.7880 C   0  0  0  0  0  0  0  0  0  0  0  0
   22.8494   53.6429   33.9848 N   0  0  0  0  0  0  0  0  0  0  0  0
   23.2848   52.9759   35.0428 C   0  0  0  0  0  0  0  0  0  0  0  0
   24.4207   53.5522   35.5373 N   0  0  0  0  0  0  0  0  0  0  0  0
   25.1831   53.1221   36.6629 C   0  0  0  0  0  0  0  0  0  0  0  0
   26.6472   55.5673   33.5838 C   0  0  0  0  0  0  0  0  0  0  0  0
   27.3340   54.2247   33.3928 C   0  0  0  0  0  0  0  0  0  0  0  0
   28.4667   54.4168   32.4217 C   0  0  0  0  0  0  0  0  0  0  0  0
   28.4399   55.6514   31.6958 N   0  0  0  0  0  0  0  0  0  0  0  0
   28.4102   55.6940   30.2737 C   0  0  0  0  0  0  0  0  0  0  0  0
   28.3835   57.0215   29.5875 C   0  0  0  0  0  0  0  0  0  0  0  0
   28.4076   54.6037   29.6449 O   0  0  0  0  0  0  0  0  0  0  0  0
   28.4444   56.8864   32.4708 C   0  0  0  0  0  0  0  0  0  0  0  0
   27.7812   56.5631   33.7923 C   0  0  0  0  0  0  0  0  0  0  0  0
   25.1620   57.8656   33.8940 C   0  0  0  0  0  0  0  0  0  0  0  0
   24.5525   59.1033   34.0130 C   0  0  0  0  0  0  0  0  0  0  0  0
   24.5761   60.0350   32.9812 C   0  0  0  0  0  0  0  0  0  0  0  0
   25.4114   59.5726   31.5219 Cl  0  0  0  0  0  0  0  0  0  0  0  0
   23.9905   61.2609   33.0582 C   0  0  0  0  0  0  0  0  0  0  0  0
   23.9674   62.2946   32.0290 C   0  0  0  0  0  0  0  0  0  0  0  0
   24.6383   62.0010   30.7700 C   0  0  0  0  0  0  0  0  0  0  0  0
   25.9597   62.2797   30.4851 C   0  0  0  0  0  0  0  0  0  0  0  0
   26.5286   61.9741   29.2444 C   0  0  0  0  0  0  0  0  0  0  0  0
   25.7484   61.3764   28.2754 C   0  0  0  0  0  0  0  0  0  0  0  0
   26.2353   61.0281   26.9855 N   0  0  0  0  0  0  0  0  0  0  0  0
   26.1293   61.7663   25.8630 C   0  0  0  0  0  0  0  0  0  0  0  0
   26.7342   61.0556   24.8479 C   0  0  0  0  0  0  0  0  0  0  0  0
   27.1949   59.8775   25.4245 C   0  0  0  0  0  0  0  0  0  0  0  0
   26.8761   59.8899   26.7270 N   0  0  0  0  0  0  0  0  0  0  0  0
   24.4184   61.0840   28.5311 C   0  0  0  0  0  0  0  0  0  0  0  0
   23.8953   61.3980   29.7588 C   0  0  0  0  0  0  0  0  0  0  0  0
  1  2  1  0
  2  3  1  0
  3  4  2  0
  4  5  1  0
  5  6  2  0
  6  7  1  0
  7  8  2  0
  8  9  1  0
  9 10  1  1
  9 11  1  0
 11 12  2  0
 12 13  1  0
 13 14  2  0
 14 15  1  0
 15 16  1  0
  9 17  1  0
 17 18  1  0
 18 19  1  0
 19 20  1  0
 20 21  1  0
 21 22  1  0
 21 23  2  0
 20 24  1  0
 24 25  1  0
  8 26  1  0
 26 27  2  0
 27 28  1  0
 28 29  1  0
 28 30  2  0
 30 31  1  0
 31 32  1  0
 32 33  2  0
 33 34  1  0
 34 35  2  0
 35 36  1  0
 36 37  1  0
 37 38  2  0
 38 39  1  0
 39 40  2  0
 35 41  1  0
 41 42  2  0
 30  3  1  0
 42 32  1  0
 27  5  1  0
 40 36  1  0
 15 11  1  0
 25 17  1  0
M  END
>  <shape_align_shape_tanimoto>  (3) 
0.33874417669805901

>  <shape_align_color_tanimoto>  (3) 
0.048276959431083559

>  <metric>  (3) 
combo

>  <metric_score>  (3) 
0.194

>  <template_pid>  (3) 
5W4R

>  <template_shape_score>  (3) 
0.339

>  <template_color_score>  (3) 
0.048

>  <template_combo_score>  (3) 
0.194

$$$$
