4BCH_shape_pose
     RDKit          3D

 33 36  0  0  0  0  0  0  0  0999 V2000
  -27.3589   -0.8778  -20.0205 C   0  0  0  0  0  0  0  0  0  0  0  0
  -27.0795   -1.1025  -18.5975 N   0  0  0  0  0  0  0  0  0  0  0  0
  -27.1993    0.0595  -17.7615 C   0  0  0  0  0  0  0  0  0  0  0  0
  -28.0096    0.6568  -17.0987 N   0  0  0  0  0  0  0  0  0  0  0  0
  -27.8437    1.7530  -16.3966 C   0  0  0  0  0  0  0  0  0  0  0  0
  -29.0398    2.3790  -15.6915 C   0  0  0  0  0  0  0  0  0  0  0  0
  -26.6029    2.2917  -16.4089 C   0  0  0  0  0  0  0  0  0  0  0  0
  -25.9024    3.4340  -15.9189 C   0  0  0  0  0  0  0  0  0  0  0  0
  -24.9487    3.9797  -16.7417 N   0  0  0  0  0  0  0  0  0  0  0  0
  -24.2700    5.1020  -16.4910 C   0  0  0  0  0  0  0  0  0  0  0  0
  -23.3165    5.5246  -17.4477 N   0  0  0  0  0  0  0  0  0  0  0  0
  -22.5041    6.6698  -17.3831 C   0  0  0  0  0  0  0  0  0  0  0  0
  -21.5877    6.8958  -18.4229 C   0  0  0  0  0  0  0  0  0  0  0  0
  -20.7558    7.9894  -18.4410 C   0  0  0  0  0  0  0  0  0  0  0  0
  -20.7830    8.9235  -17.4298 C   0  0  0  0  0  0  0  0  0  0  0  0
  -19.8558   10.0756  -17.5291 C   0  0  0  0  0  0  0  0  0  0  0  0
  -21.6699    8.7305  -16.3967 C   0  0  0  0  0  0  0  0  0  0  0  0
  -21.7018    9.9241  -15.1214 S   0  0  0  0  0  0  0  0  0  0  0  0
  -21.8902   11.3021  -15.6809 O   0  0  0  0  0  0  0  0  0  0  0  0
  -20.3209    9.8534  -14.4745 O   0  0  0  0  0  0  0  0  0  0  0  0
  -22.8289    9.5266  -13.9254 N   0  0  0  0  0  0  0  0  0  0  0  0
  -22.6097    8.3193  -13.2294 C   0  0  0  0  0  0  0  0  0  0  0  0
  -22.2338    8.6273  -11.7890 C   0  0  0  0  0  0  0  0  0  0  0  0
  -23.2223    9.4314  -11.2094 O   0  0  0  0  0  0  0  0  0  0  0  0
  -23.2060   10.7041  -11.7832 C   0  0  0  0  0  0  0  0  0  0  0  0
  -23.4710   10.5820  -13.2480 C   0  0  0  0  0  0  0  0  0  0  0  0
  -22.5098    7.6145  -16.3910 C   0  0  0  0  0  0  0  0  0  0  0  0
  -24.5417    5.7436  -15.3481 N   0  0  0  0  0  0  0  0  0  0  0  0
  -25.4457    5.3208  -14.4563 C   0  0  0  0  0  0  0  0  0  0  0  0
  -26.1282    4.1367  -14.7680 C   0  0  0  0  0  0  0  0  0  0  0  0
  -27.0055    3.6528  -13.7534 C   0  0  0  0  0  0  0  0  0  0  0  0
  -27.6972    3.2667  -12.9232 N   0  0  0  0  0  0  0  0  0  0  0  0
  -25.7027    1.1504  -17.4772 S   0  0  0  0  0  0  0  0  0  0  0  0
  1  2  1  0
  2  3  1  0
  3  4  2  0
  4  5  1  0
  5  6  1  0
  5  7  2  0
  7  8  1  0
  8  9  2  0
  9 10  1  0
 10 11  1  0
 11 12  1  0
 12 13  2  0
 13 14  1  0
 14 15  2  0
 15 16  1  0
 15 17  1  0
 17 18  1  0
 18 19  2  0
 18 20  2  0
 18 21  1  0
 21 22  1  0
 22 23  1  0
 23 24  1  0
 24 25  1  0
 25 26  1  0
 17 27  2  0
 10 28  2  0
 28 29  1  0
 29 30  2  0
 30 31  1  0
 31 32  3  0
  7 33  1  0
 33  3  1  0
 30  8  1  0
 27 12  1  0
 26 21  1  0
M  END
>  <shape_align_shape_tanimoto>  (1) 
0.62420815970378285

>  <shape_align_color_tanimoto>  (1) 
0.053951201518282269

>  <metric>  (1) 
shape

>  <metric_score>  (1) 
0.624

>  <template_pid>  (1) 
4BCH

>  <template_shape_score>  (1) 
0.624

>  <template_color_score>  (1) 
0.054

>  <template_combo_score>  (1) 
0.339

$$$$
4BCH_color_pose
     RDKit          3D

 33 36  0  0  0  0  0  0  0  0999 V2000
  -19.6916    8.9511  -19.1074 C   0  0  0  0  0  0  0  0  0  0  0  0
  -20.3635    8.9874  -17.8261 N   0  0  0  0  0  0  0  0  0  0  0  0
  -21.3858    7.9859  -17.6352 C   0  0  0  0  0  0  0  0  0  0  0  0
  -21.9162    7.1027  -18.1482 N   0  0  0  0  0  0  0  0  0  0  0  0
  -22.8780    6.3141  -17.7099 C   0  0  0  0  0  0  0  0  0  0  0  0
  -23.4585    5.2140  -18.5644 C   0  0  0  0  0  0  0  0  0  0  0  0
  -23.3002    6.6052  -16.4427 C   0  0  0  0  0  0  0  0  0  0  0  0
  -24.3435    6.0177  -15.5813 C   0  0  0  0  0  0  0  0  0  0  0  0
  -25.0000    4.9001  -15.8636 N   0  0  0  0  0  0  0  0  0  0  0  0
  -25.9395    4.3611  -15.0779 C   0  0  0  0  0  0  0  0  0  0  0  0
  -26.6401    3.1659  -15.3320 N   0  0  0  0  0  0  0  0  0  0  0  0
  -26.3286    2.2020  -16.3146 C   0  0  0  0  0  0  0  0  0  0  0  0
  -25.0658    2.1032  -16.7990 C   0  0  0  0  0  0  0  0  0  0  0  0
  -24.7738    1.1769  -17.7728 C   0  0  0  0  0  0  0  0  0  0  0  0
  -25.7850    0.3355  -18.2630 C   0  0  0  0  0  0  0  0  0  0  0  0
  -25.4228   -0.6479  -19.2585 C   0  0  0  0  0  0  0  0  0  0  0  0
  -27.0791    0.4101  -17.7931 C   0  0  0  0  0  0  0  0  0  0  0  0
  -28.4034   -0.5269  -18.3522 S   0  0  0  0  0  0  0  0  0  0  0  0
  -28.2032   -2.0226  -18.0399 O   0  0  0  0  0  0  0  0  0  0  0  0
  -29.6015   -0.2355  -17.4409 O   0  0  0  0  0  0  0  0  0  0  0  0
  -28.9853   -0.2779  -19.8931 N   0  0  0  0  0  0  0  0  0  0  0  0
  -28.2435   -0.4706  -21.0582 C   0  0  0  0  0  0  0  0  0  0  0  0
  -27.7492    0.7956  -21.7195 C   0  0  0  0  0  0  0  0  0  0  0  0
  -27.7072    1.8776  -20.8790 O   0  0  0  0  0  0  0  0  0  0  0  0
  -28.8708    2.1349  -20.1926 C   0  0  0  0  0  0  0  0  0  0  0  0
  -29.7696    0.9320  -20.0576 C   0  0  0  0  0  0  0  0  0  0  0  0
  -27.2964    1.3771  -16.8022 C   0  0  0  0  0  0  0  0  0  0  0  0
  -26.2311    5.0078  -13.9208 N   0  0  0  0  0  0  0  0  0  0  0  0
  -25.6213    6.1392  -13.5527 C   0  0  0  0  0  0  0  0  0  0  0  0
  -24.6441    6.6676  -14.4058 C   0  0  0  0  0  0  0  0  0  0  0  0
  -24.0299    7.8778  -13.9621 C   0  0  0  0  0  0  0  0  0  0  0  0
  -23.5505    8.8644  -13.5956 N   0  0  0  0  0  0  0  0  0  0  0  0
  -22.2761    8.0055  -15.9681 S   0  0  0  0  0  0  0  0  0  0  0  0
  1  2  1  0
  2  3  1  0
  3  4  2  0
  4  5  1  0
  5  6  1  0
  5  7  2  0
  7  8  1  0
  8  9  2  0
  9 10  1  0
 10 11  1  0
 11 12  1  0
 12 13  2  0
 13 14  1  0
 14 15  2  0
 15 16  1  0
 15 17  1  0
 17 18  1  0
 18 19  2  0
 18 20  2  0
 18 21  1  0
 21 22  1  0
 22 23  1  0
 23 24  1  0
 24 25  1  0
 25 26  1  0
 17 27  2  0
 10 28  2  0
 28 29  1  0
 29 30  2  0
 30 31  1  0
 31 32  3  0
  7 33  1  0
 33  3  1  0
 30  8  1  0
 27 12  1  0
 26 21  1  0
M  END
>  <shape_align_shape_tanimoto>  (2) 
0.60502796850930762

>  <shape_align_color_tanimoto>  (2) 
0.15768572074655518

>  <metric>  (2) 
color

>  <metric_score>  (2) 
0.158

>  <template_pid>  (2) 
4BCH

>  <template_shape_score>  (2) 
0.605

>  <template_color_score>  (2) 
0.158

>  <template_combo_score>  (2) 
0.381

$$$$
4BCH_combo_pose
     RDKit          3D

 33 36  0  0  0  0  0  0  0  0999 V2000
  -19.6916    8.9511  -19.1074 C   0  0  0  0  0  0  0  0  0  0  0  0
  -20.3635    8.9874  -17.8261 N   0  0  0  0  0  0  0  0  0  0  0  0
  -21.3858    7.9859  -17.6352 C   0  0  0  0  0  0  0  0  0  0  0  0
  -21.9162    7.1027  -18.1482 N   0  0  0  0  0  0  0  0  0  0  0  0
  -22.8780    6.3141  -17.7099 C   0  0  0  0  0  0  0  0  0  0  0  0
  -23.4585    5.2140  -18.5644 C   0  0  0  0  0  0  0  0  0  0  0  0
  -23.3002    6.6052  -16.4427 C   0  0  0  0  0  0  0  0  0  0  0  0
  -24.3435    6.0177  -15.5813 C   0  0  0  0  0  0  0  0  0  0  0  0
  -25.0000    4.9001  -15.8636 N   0  0  0  0  0  0  0  0  0  0  0  0
  -25.9395    4.3611  -15.0779 C   0  0  0  0  0  0  0  0  0  0  0  0
  -26.6401    3.1659  -15.3320 N   0  0  0  0  0  0  0  0  0  0  0  0
  -26.3286    2.2020  -16.3146 C   0  0  0  0  0  0  0  0  0  0  0  0
  -25.0658    2.1032  -16.7990 C   0  0  0  0  0  0  0  0  0  0  0  0
  -24.7738    1.1769  -17.7728 C   0  0  0  0  0  0  0  0  0  0  0  0
  -25.7850    0.3355  -18.2630 C   0  0  0  0  0  0  0  0  0  0  0  0
  -25.4228   -0.6479  -19.2585 C   0  0  0  0  0  0  0  0  0  0  0  0
  -27.0791    0.4101  -17.7931 C   0  0  0  0  0  0  0  0  0  0  0  0
  -28.4034   -0.5269  -18.3522 S   0  0  0  0  0  0  0  0  0  0  0  0
  -28.2032   -2.0226  -18.0399 O   0  0  0  0  0  0  0  0  0  0  0  0
  -29.6015   -0.2355  -17.4409 O   0  0  0  0  0  0  0  0  0  0  0  0
  -28.9853   -0.2779  -19.8931 N   0  0  0  0  0  0  0  0  0  0  0  0
  -28.2435   -0.4706  -21.0582 C   0  0  0  0  0  0  0  0  0  0  0  0
  -27.7492    0.7956  -21.7195 C   0  0  0  0  0  0  0  0  0  0  0  0
  -27.7072    1.8776  -20.8790 O   0  0  0  0  0  0  0  0  0  0  0  0
  -28.8708    2.1349  -20.1926 C   0  0  0  0  0  0  0  0  0  0  0  0
  -29.7696    0.9320  -20.0576 C   0  0  0  0  0  0  0  0  0  0  0  0
  -27.2964    1.3771  -16.8022 C   0  0  0  0  0  0  0  0  0  0  0  0
  -26.2311    5.0078  -13.9208 N   0  0  0  0  0  0  0  0  0  0  0  0
  -25.6213    6.1392  -13.5527 C   0  0  0  0  0  0  0  0  0  0  0  0
  -24.6441    6.6676  -14.4058 C   0  0  0  0  0  0  0  0  0  0  0  0
  -24.0299    7.8778  -13.9621 C   0  0  0  0  0  0  0  0  0  0  0  0
  -23.5505    8.8644  -13.5956 N   0  0  0  0  0  0  0  0  0  0  0  0
  -22.2761    8.0055  -15.9681 S   0  0  0  0  0  0  0  0  0  0  0  0
  1  2  1  0
  2  3  1  0
  3  4  2  0
  4  5  1  0
  5  6  1  0
  5  7  2  0
  7  8  1  0
  8  9  2  0
  9 10  1  0
 10 11  1  0
 11 12  1  0
 12 13  2  0
 13 14  1  0
 14 15  2  0
 15 16  1  0
 15 17  1  0
 17 18  1  0
 18 19  2  0
 18 20  2  0
 18 21  1  0
 21 22  1  0
 22 23  1  0
 23 24  1  0
 24 25  1  0
 25 26  1  0
 17 27  2  0
 10 28  2  0
 28 29  1  0
 29 30  2  0
 30 31  1  0
 31 32  3  0
  7 33  1  0
 33  3  1  0
 30  8  1  0
 27 12  1  0
 26 21  1  0
M  END
>  <shape_align_shape_tanimoto>  (3) 
0.60502796850930762

>  <shape_align_color_tanimoto>  (3) 
0.15768572074655518

>  <metric>  (3) 
combo

>  <metric_score>  (3) 
0.381

>  <template_pid>  (3) 
4BCH

>  <template_shape_score>  (3) 
0.605

>  <template_color_score>  (3) 
0.158

>  <template_combo_score>  (3) 
0.381

$$$$
