6HLB_shape_pose
     RDKit          3D

 75 75  0  0  0  0  0  0  0  0999 V2000
  102.8915   26.3124   17.8301 N   0  0  0  0  0  0  0  0  0  0  0  0
  101.8966   26.6546   16.8229 C   0  0  0  0  0  0  0  0  0  0  0  0
  102.2236   26.4966   15.5837 N   0  0  0  0  0  0  0  0  0  0  0  0
  100.5990   27.1486   17.2364 N   0  0  0  0  0  0  0  0  0  0  0  0
   99.5727   27.5012   16.2550 C   0  0  0  0  0  0  0  0  0  0  0  0
   98.2761   27.9213   17.0051 C   0  0  0  0  0  0  0  0  0  0  0  0
   97.8464   26.7002   17.7654 C   0  0  0  0  0  0  0  0  0  0  0  0
   96.6091   26.8420   18.6215 C   0  0  2  0  0  0  0  0  0  0  0  0
   96.8235   27.8517   19.6158 N   0  0  0  0  0  0  0  0  0  0  0  0
   95.8408   28.7201   20.1697 C   0  0  0  0  0  0  0  0  0  0  0  0
   94.6529   28.5877   19.7455 O   0  0  0  0  0  0  0  0  0  0  0  0
   96.1438   29.7160   21.1757 C   0  0  2  0  0  0  0  0  0  0  0  0
   96.9203   29.0013   22.3487 C   0  0  0  0  0  0  0  0  0  0  0  0
   96.1183   27.9237   22.9956 C   0  0  0  0  0  0  0  0  0  0  0  0
   96.9100   27.2555   24.1128 C   0  0  0  0  0  0  0  0  0  0  0  0
   97.2587   28.3097   25.1557 C   0  0  0  0  0  0  0  0  0  0  0  0
   98.0124   27.7231   26.2728 N   0  0  0  0  0  0  0  0  0  0  0  0
   94.9827   30.3764   21.7841 N   0  0  0  0  0  0  0  0  0  0  0  0
   95.0760   31.6132   22.4976 C   0  0  0  0  0  0  0  0  0  0  0  0
   96.1430   32.2637   22.6579 O   0  0  0  0  0  0  0  0  0  0  0  0
   93.7430   32.1004   23.0870 C   0  0  2  0  0  0  0  0  0  0  0  0
   92.9756   32.7396   21.9803 C   0  0  0  0  0  0  0  0  0  0  0  0
   91.6182   33.3044   22.2948 C   0  0  0  0  0  0  0  0  0  0  0  0
   91.5402   34.4473   23.2471 C   0  0  0  0  0  0  0  0  0  0  0  0
   92.1923   35.6707   22.8726 N   0  0  0  0  0  0  0  0  0  0  0  0
   91.8377   36.5305   21.8024 C   0  0  0  0  0  0  0  0  0  0  0  0
   92.6628   37.7211   21.6147 N   0  0  0  0  0  0  0  0  0  0  0  0
   90.8492   36.3361   20.9940 N   0  0  0  0  0  0  0  0  0  0  0  0
   94.1089   33.0774   24.1063 N   0  0  0  0  0  0  0  0  0  0  0  0
   94.3197   32.5392   25.4230 C   0  0  0  0  0  0  0  0  0  0  0  0
   94.1515   31.2286   25.4565 O   0  0  0  0  0  0  0  0  0  0  0  0
   94.6617   33.1458   26.6729 C   0  0  2  0  0  0  0  0  0  0  0  0
   95.9570   33.7381   27.0607 C   0  0  0  0  0  0  0  0  0  0  0  0
   96.6194   34.8737   26.3823 C   0  0  0  0  0  0  0  0  0  0  0  0
   97.1846   34.6958   25.0187 C   0  0  0  0  0  0  0  0  0  0  0  0
   98.2695   33.6875   24.9843 N   0  0  0  0  0  0  0  0  0  0  0  0
   99.5454   33.8902   25.5677 C   0  0  0  0  0  0  0  0  0  0  0  0
  100.4908   32.7997   25.4490 N   0  0  0  0  0  0  0  0  0  0  0  0
   99.9442   34.9405   26.1867 N   0  0  0  0  0  0  0  0  0  0  0  0
   94.5500   31.9594   27.6588 N   0  0  0  0  0  0  0  0  0  0  0  0
   94.1355   32.1787   28.9944 C   0  0  0  0  0  0  0  0  0  0  0  0
   93.8422   33.2740   29.5139 O   0  0  0  0  0  0  0  0  0  0  0  0
   94.0633   30.8897   29.8463 C   0  0  2  0  0  0  0  0  0  0  0  0
   92.8822   30.1064   29.3087 C   0  0  0  0  0  0  0  0  0  0  0  0
   92.6272   28.8032   30.0083 C   0  0  0  0  0  0  0  0  0  0  0  0
   91.4249   28.0543   29.4211 C   0  0  0  0  0  0  0  0  0  0  0  0
   90.1906   28.7921   29.5070 N   0  0  0  0  0  0  0  0  0  0  0  0
   88.9174   28.2860   29.0086 C   0  0  0  0  0  0  0  0  0  0  0  0
   87.7539   29.1154   29.1475 N   0  0  0  0  0  0  0  0  0  0  0  0
   88.8788   27.1083   28.4561 N   0  0  0  0  0  0  0  0  0  0  0  0
   93.9308   31.2707   31.2250 N   0  0  0  0  0  0  0  0  0  0  0  0
   95.0948   31.0393   32.0814 C   0  0  0  0  0  0  0  0  0  0  0  0
   96.0829   30.5208   31.5041 O   0  0  0  0  0  0  0  0  0  0  0  0
   95.1155   31.3899   33.5095 C   0  0  1  0  0  0  0  0  0  0  0  0
   94.0132   32.3721   33.7965 N   0  0  0  0  0  0  0  0  0  0  0  0
   94.9109   30.2900   34.4860 C   0  0  0  0  0  0  0  0  0  0  0  0
   95.7958   29.1170   34.6204 C   0  0  0  0  0  0  0  0  0  0  0  0
   95.9376   28.1129   33.5180 C   0  0  0  0  0  0  0  0  0  0  0  0
   94.6493   27.5000   33.1547 N   0  0  0  0  0  0  0  0  0  0  0  0
   94.4990   26.5056   32.1499 C   0  0  0  0  0  0  0  0  0  0  0  0
   93.1607   26.0067   31.9268 N   0  0  0  0  0  0  0  0  0  0  0  0
   95.5140   26.0740   31.4808 N   0  0  0  0  0  0  0  0  0  0  0  0
   96.4036   25.4613   19.2326 C   0  0  0  0  0  0  0  0  0  0  0  0
   96.4211   25.2880   20.4841 O   0  0  0  0  0  0  0  0  0  0  0  0
   96.1848   24.3215   18.4007 N   0  0  0  0  0  0  0  0  0  0  0  0
   95.9726   22.9672   18.8919 C   0  0  0  0  0  0  0  0  0  0  0  0
   94.5777   22.8007   19.4054 C   0  0  0  0  0  0  0  0  0  0  0  0
   93.5885   22.4688   18.4751 C   0  0  0  0  0  0  0  0  0  0  0  0
   92.2570   22.2854   18.8570 C   0  0  0  0  0  0  0  0  0  0  0  0
   91.8645   22.4270   20.1914 C   0  0  0  0  0  0  0  0  0  0  0  0
   90.4625   22.2284   20.5563 C   0  0  0  0  0  0  0  0  0  0  0  0
   89.8274   22.8936   21.6688 N   0  0  0  0  0  0  0  0  0  0  0  0
   89.7038   21.4066   19.8660 N   0  0  0  0  0  0  0  0  0  0  0  0
   92.8697   22.7564   21.0908 C   0  0  0  0  0  0  0  0  0  0  0  0
   94.1991   22.9422   20.7265 C   0  0  0  0  0  0  0  0  0  0  0  0
  1  2  1  0
  2  3  2  0
  2  4  1  0
  4  5  1  0
  5  6  1  0
  6  7  1  0
  8  7  1  6
  8  9  1  0
  9 10  1  0
 10 11  2  0
 10 12  1  0
 12 13  1  1
 13 14  1  0
 14 15  1  0
 15 16  1  0
 16 17  1  0
 12 18  1  0
 18 19  1  0
 19 20  2  0
 19 21  1  0
 21 22  1  6
 22 23  1  0
 23 24  1  0
 24 25  1  0
 25 26  1  0
 26 27  1  0
 26 28  2  0
 21 29  1  0
 29 30  1  0
 30 31  2  0
 30 32  1  0
 32 33  1  6
 33 34  1  0
 34 35  1  0
 35 36  1  0
 36 37  1  0
 37 38  1  0
 37 39  2  0
 32 40  1  0
 40 41  1  0
 41 42  2  0
 41 43  1  0
 43 44  1  6
 44 45  1  0
 45 46  1  0
 46 47  1  0
 47 48  1  0
 48 49  1  0
 48 50  2  0
 43 51  1  0
 51 52  1  0
 52 53  2  0
 52 54  1  0
 54 55  1  6
 54 56  1  0
 56 57  1  0
 57 58  1  0
 58 59  1  0
 59 60  1  0
 60 61  1  0
 60 62  2  0
  8 63  1  0
 63 64  2  0
 63 65  1  0
 65 66  1  0
 66 67  1  0
 67 68  2  0
 68 69  1  0
 69 70  2  0
 70 71  1  0
 71 72  1  0
 71 73  2  0
 70 74  1  0
 74 75  2  0
 75 67  1  0
M  CHG  8   3   1  17   1  28   1  39   1  50   1  55   1  62   1  73   1
M  END
>  <shape_align_shape_tanimoto>  (1) 
0.31744787308117534

>  <shape_align_color_tanimoto>  (1) 
0.0098727559568580932

>  <metric>  (1) 
shape

>  <metric_score>  (1) 
0.317

>  <template_pid>  (1) 
6HLB

>  <template_shape_score>  (1) 
0.317

>  <template_color_score>  (1) 
0.010

>  <template_combo_score>  (1) 
0.164

$$$$
6HLB_color_pose
     RDKit          3D

 75 75  0  0  0  0  0  0  0  0999 V2000
   93.0606   40.4897   21.1001 N   0  0  0  0  0  0  0  0  0  0  0  0
   92.9081   39.1353   21.5550 C   0  0  0  0  0  0  0  0  0  0  0  0
   93.7694   38.3038   21.0951 N   0  0  0  0  0  0  0  0  0  0  0  0
   91.8642   38.8247   22.4305 N   0  0  0  0  0  0  0  0  0  0  0  0
   91.5183   37.5601   22.9966 C   0  0  0  0  0  0  0  0  0  0  0  0
   91.0569   36.5863   21.9378 C   0  0  0  0  0  0  0  0  0  0  0  0
   90.6103   35.2926   22.5237 C   0  0  0  0  0  0  0  0  0  0  0  0
   91.5777   34.4317   23.2868 C   0  0  2  0  0  0  0  0  0  0  0  0
   92.6795   33.9244   22.5910 N   0  0  0  0  0  0  0  0  0  0  0  0
   94.0089   34.4189   22.4929 C   0  0  0  0  0  0  0  0  0  0  0  0
   94.3705   35.4809   23.0944 O   0  0  0  0  0  0  0  0  0  0  0  0
   95.0425   33.7529   21.6861 C   0  0  2  0  0  0  0  0  0  0  0  0
   94.9323   34.3668   20.2736 C   0  0  0  0  0  0  0  0  0  0  0  0
   93.6010   34.1474   19.6396 C   0  0  0  0  0  0  0  0  0  0  0  0
   93.6231   34.8285   18.2810 C   0  0  0  0  0  0  0  0  0  0  0  0
   92.3363   34.7039   17.5327 C   0  0  0  0  0  0  0  0  0  0  0  0
   92.3899   35.3619   16.2339 N   0  0  0  0  0  0  0  0  0  0  0  0
   94.9608   32.3328   21.6319 N   0  0  0  0  0  0  0  0  0  0  0  0
   95.8454   31.4860   20.9055 C   0  0  0  0  0  0  0  0  0  0  0  0
   96.7527   31.9456   20.1769 O   0  0  0  0  0  0  0  0  0  0  0  0
   95.6106   30.0067   21.0832 C   0  0  2  0  0  0  0  0  0  0  0  0
   94.6618   29.4262   20.1128 C   0  0  0  0  0  0  0  0  0  0  0  0
   94.4799   27.9483   20.3657 C   0  0  0  0  0  0  0  0  0  0  0  0
   95.7415   27.1474   20.2492 C   0  0  0  0  0  0  0  0  0  0  0  0
   96.3363   27.2334   18.9369 N   0  0  0  0  0  0  0  0  0  0  0  0
   97.5377   26.5568   18.5807 C   0  0  0  0  0  0  0  0  0  0  0  0
   98.0610   26.6899   17.2659 N   0  0  0  0  0  0  0  0  0  0  0  0
   98.0977   25.8443   19.4836 N   0  0  0  0  0  0  0  0  0  0  0  0
   95.0887   29.8021   22.4384 N   0  0  0  0  0  0  0  0  0  0  0  0
   96.0466   29.4037   23.4066 C   0  0  0  0  0  0  0  0  0  0  0  0
   97.2383   29.2398   22.9688 O   0  0  0  0  0  0  0  0  0  0  0  0
   95.8362   29.1646   24.8323 C   0  0  2  0  0  0  0  0  0  0  0  0
   95.3794   30.3041   25.6746 C   0  0  0  0  0  0  0  0  0  0  0  0
   94.0983   30.9564   25.3321 C   0  0  0  0  0  0  0  0  0  0  0  0
   93.7949   32.0391   26.3591 C   0  0  0  0  0  0  0  0  0  0  0  0
   94.8201   33.0606   26.3675 N   0  0  0  0  0  0  0  0  0  0  0  0
   94.7171   34.1565   27.2717 C   0  0  0  0  0  0  0  0  0  0  0  0
   95.6919   35.1822   27.3136 N   0  0  0  0  0  0  0  0  0  0  0  0
   93.7122   34.2528   28.0928 N   0  0  0  0  0  0  0  0  0  0  0  0
   97.1688   28.7174   25.3360 N   0  0  0  0  0  0  0  0  0  0  0  0
   98.3002   29.5958   25.2125 C   0  0  0  0  0  0  0  0  0  0  0  0
   98.1737   30.7567   24.6783 O   0  0  0  0  0  0  0  0  0  0  0  0
   99.6573   29.2536   25.6670 C   0  0  2  0  0  0  0  0  0  0  0  0
  100.5640   28.9614   24.4580 C   0  0  0  0  0  0  0  0  0  0  0  0
  100.7081   30.1059   23.5265 C   0  0  0  0  0  0  0  0  0  0  0  0
  101.3138   31.3490   24.0912 C   0  0  0  0  0  0  0  0  0  0  0  0
  101.3723   32.3919   23.0553 N   0  0  0  0  0  0  0  0  0  0  0  0
  101.8839   33.6762   23.2756 C   0  0  0  0  0  0  0  0  0  0  0  0
  101.9108   34.6527   22.2231 N   0  0  0  0  0  0  0  0  0  0  0  0
  102.3302   33.9693   24.4447 N   0  0  0  0  0  0  0  0  0  0  0  0
   99.7193   28.0529   26.4600 N   0  0  0  0  0  0  0  0  0  0  0  0
  100.7766   27.9561   27.4188 C   0  0  0  0  0  0  0  0  0  0  0  0
  101.5664   28.9456   27.4472 O   0  0  0  0  0  0  0  0  0  0  0  0
  100.9319   26.7746   28.3145 C   0  0  1  0  0  0  0  0  0  0  0  0
   99.5535   26.1966   28.3584 N   0  0  0  0  0  0  0  0  0  0  0  0
  101.7616   25.6914   27.7470 C   0  0  0  0  0  0  0  0  0  0  0  0
  103.1644   25.8906   27.3907 C   0  0  0  0  0  0  0  0  0  0  0  0
  104.1852   26.1791   28.4044 C   0  0  0  0  0  0  0  0  0  0  0  0
  104.0388   27.3560   29.2030 N   0  0  0  0  0  0  0  0  0  0  0  0
  105.0920   27.6130   30.1535 C   0  0  0  0  0  0  0  0  0  0  0  0
  105.0216   28.7772   30.9885 N   0  0  0  0  0  0  0  0  0  0  0  0
  106.1020   26.8102   30.2592 N   0  0  0  0  0  0  0  0  0  0  0  0
   90.7198   33.4708   24.0198 C   0  0  0  0  0  0  0  0  0  0  0  0
   89.7039   33.9980   24.6013 O   0  0  0  0  0  0  0  0  0  0  0  0
   90.8702   32.0904   24.1474 N   0  0  0  0  0  0  0  0  0  0  0  0
   89.9816   31.1976   24.8415 C   0  0  0  0  0  0  0  0  0  0  0  0
   90.0651   31.2108   26.3072 C   0  0  0  0  0  0  0  0  0  0  0  0
   90.9062   30.3562   27.0032 C   0  0  0  0  0  0  0  0  0  0  0  0
   90.9606   30.3474   28.3980 C   0  0  0  0  0  0  0  0  0  0  0  0
   90.1822   31.1874   29.1533 C   0  0  0  0  0  0  0  0  0  0  0  0
   90.2132   31.1904   30.6047 C   0  0  0  0  0  0  0  0  0  0  0  0
   90.4429   30.0414   31.3812 N   0  0  0  0  0  0  0  0  0  0  0  0
   90.0121   32.3163   31.2474 N   0  0  0  0  0  0  0  0  0  0  0  0
   89.3417   32.0424   28.4759 C   0  0  0  0  0  0  0  0  0  0  0  0
   89.2835   32.0538   27.0790 C   0  0  0  0  0  0  0  0  0  0  0  0
  1  2  1  0
  2  3  2  0
  2  4  1  0
  4  5  1  0
  5  6  1  0
  6  7  1  0
  8  7  1  6
  8  9  1  0
  9 10  1  0
 10 11  2  0
 10 12  1  0
 12 13  1  6
 13 14  1  0
 14 15  1  0
 15 16  1  0
 16 17  1  0
 12 18  1  0
 18 19  1  0
 19 20  2  0
 19 21  1  0
 21 22  1  6
 22 23  1  0
 23 24  1  0
 24 25  1  0
 25 26  1  0
 26 27  1  0
 26 28  2  0
 21 29  1  0
 29 30  1  0
 30 31  2  0
 30 32  1  0
 32 33  1  1
 33 34  1  0
 34 35  1  0
 35 36  1  0
 36 37  1  0
 37 38  1  0
 37 39  2  0
 32 40  1  0
 40 41  1  0
 41 42  2  0
 41 43  1  0
 43 44  1  6
 44 45  1  0
 45 46  1  0
 46 47  1  0
 47 48  1  0
 48 49  1  0
 48 50  2  0
 43 51  1  0
 51 52  1  0
 52 53  2  0
 52 54  1  0
 54 55  1  6
 54 56  1  0
 56 57  1  0
 57 58  1  0
 58 59  1  0
 59 60  1  0
 60 61  1  0
 60 62  2  0
  8 63  1  0
 63 64  2  0
 63 65  1  0
 65 66  1  0
 66 67  1  0
 67 68  2  0
 68 69  1  0
 69 70  2  0
 70 71  1  0
 71 72  1  0
 71 73  2  0
 70 74  1  0
 74 75  2  0
 75 67  1  0
M  CHG  8   3   1  17   1  28   1  39   1  50   1  55   1  62   1  73   1
M  END
>  <shape_align_shape_tanimoto>  (2) 
0.25545972165893599

>  <shape_align_color_tanimoto>  (2) 
0.044761201960410196

>  <metric>  (2) 
color

>  <metric_score>  (2) 
0.045

>  <template_pid>  (2) 
6HLB

>  <template_shape_score>  (2) 
0.255

>  <template_color_score>  (2) 
0.045

>  <template_combo_score>  (2) 
0.150

$$$$
6HLB_combo_pose
     RDKit          3D

 75 75  0  0  0  0  0  0  0  0999 V2000
   94.0162   34.8299   16.7388 N   0  0  0  0  0  0  0  0  0  0  0  0
   93.2204   35.8619   17.3315 C   0  0  0  0  0  0  0  0  0  0  0  0
   93.4643   37.1139   17.1740 N   0  0  0  0  0  0  0  0  0  0  0  0
   92.1114   35.4845   18.1358 N   0  0  0  0  0  0  0  0  0  0  0  0
   91.2490   36.4850   18.7845 C   0  0  0  0  0  0  0  0  0  0  0  0
   90.1568   35.7891   19.5725 C   0  0  0  0  0  0  0  0  0  0  0  0
   90.7243   34.8983   20.6323 C   0  0  0  0  0  0  0  0  0  0  0  0
   91.5806   35.6111   21.6654 C   0  0  2  0  0  0  0  0  0  0  0  0
   92.0309   34.5159   22.5747 N   0  0  0  0  0  0  0  0  0  0  0  0
   93.3732   34.0911   22.6162 C   0  0  0  0  0  0  0  0  0  0  0  0
   94.3167   34.5385   21.9368 O   0  0  0  0  0  0  0  0  0  0  0  0
   93.6237   32.9468   23.6332 C   0  0  2  0  0  0  0  0  0  0  0  0
   93.3213   33.4720   24.9742 C   0  0  0  0  0  0  0  0  0  0  0  0
   93.3565   32.7804   26.2375 C   0  0  0  0  0  0  0  0  0  0  0  0
   94.5253   32.1767   26.8774 C   0  0  0  0  0  0  0  0  0  0  0  0
   95.2314   31.0211   26.3168 C   0  0  0  0  0  0  0  0  0  0  0  0
   96.3300   30.6418   27.2567 N   0  0  0  0  0  0  0  0  0  0  0  0
   94.9931   32.5609   23.4812 N   0  0  0  0  0  0  0  0  0  0  0  0
   95.2977   31.4964   22.6080 C   0  0  0  0  0  0  0  0  0  0  0  0
   94.3429   30.9326   21.9796 O   0  0  0  0  0  0  0  0  0  0  0  0
   96.6867   30.9597   22.3684 C   0  0  2  0  0  0  0  0  0  0  0  0
   97.6574   31.8360   21.7423 C   0  0  0  0  0  0  0  0  0  0  0  0
   97.9412   33.0784   22.4986 C   0  0  0  0  0  0  0  0  0  0  0  0
   98.5004   32.8726   23.8881 C   0  0  0  0  0  0  0  0  0  0  0  0
   98.6495   34.2013   24.4539 N   0  0  0  0  0  0  0  0  0  0  0  0
   99.1471   34.3087   25.7767 C   0  0  0  0  0  0  0  0  0  0  0  0
   99.3037   35.5822   26.4112 N   0  0  0  0  0  0  0  0  0  0  0  0
   99.4577   33.2505   26.4509 N   0  0  0  0  0  0  0  0  0  0  0  0
   96.5107   29.6893   21.5916 N   0  0  0  0  0  0  0  0  0  0  0  0
   95.7249   28.7142   22.2367 C   0  0  0  0  0  0  0  0  0  0  0  0
   95.1888   28.8787   23.3706 O   0  0  0  0  0  0  0  0  0  0  0  0
   95.4664   27.3889   21.5904 C   0  0  2  0  0  0  0  0  0  0  0  0
   95.1809   26.3544   22.5878 C   0  0  0  0  0  0  0  0  0  0  0  0
   94.9106   24.9749   22.0744 C   0  0  0  0  0  0  0  0  0  0  0  0
   93.7775   24.8628   21.1404 C   0  0  0  0  0  0  0  0  0  0  0  0
   92.4973   25.2720   21.6254 N   0  0  0  0  0  0  0  0  0  0  0  0
   91.7151   24.6690   22.6140 C   0  0  0  0  0  0  0  0  0  0  0  0
   90.4419   25.2895   22.9169 N   0  0  0  0  0  0  0  0  0  0  0  0
   92.0751   23.6152   23.2364 N   0  0  0  0  0  0  0  0  0  0  0  0
   96.4464   26.9996   20.6233 N   0  0  0  0  0  0  0  0  0  0  0  0
   96.3820   27.1895   19.2271 C   0  0  0  0  0  0  0  0  0  0  0  0
   95.3282   27.7799   18.7942 O   0  0  0  0  0  0  0  0  0  0  0  0
   97.3728   26.7916   18.2410 C   0  0  2  0  0  0  0  0  0  0  0  0
   98.7622   27.2541   18.3755 C   0  0  0  0  0  0  0  0  0  0  0  0
   99.5458   26.9084   19.5696 C   0  0  0  0  0  0  0  0  0  0  0  0
   99.7112   25.4347   19.8311 C   0  0  0  0  0  0  0  0  0  0  0  0
  100.4972   25.2227   21.0353 N   0  0  0  0  0  0  0  0  0  0  0  0
  100.7320   23.8497   21.4012 C   0  0  0  0  0  0  0  0  0  0  0  0
  101.4854   23.5022   22.5567 N   0  0  0  0  0  0  0  0  0  0  0  0
  100.2465   22.9079   20.6644 N   0  0  0  0  0  0  0  0  0  0  0  0
   96.7970   27.2021   16.9399 N   0  0  0  0  0  0  0  0  0  0  0  0
   96.5064   26.2553   15.9204 C   0  0  0  0  0  0  0  0  0  0  0  0
   96.7414   25.0341   16.1225 O   0  0  0  0  0  0  0  0  0  0  0  0
   95.9393   26.6751   14.6304 C   0  0  1  0  0  0  0  0  0  0  0  0
   95.8739   25.5642   13.6798 N   0  0  0  0  0  0  0  0  0  0  0  0
   94.7004   27.4711   14.6713 C   0  0  0  0  0  0  0  0  0  0  0  0
   93.4789   26.8763   15.2985 C   0  0  0  0  0  0  0  0  0  0  0  0
   92.9640   25.6249   14.6799 C   0  0  0  0  0  0  0  0  0  0  0  0
   91.7919   25.1838   15.4144 N   0  0  0  0  0  0  0  0  0  0  0  0
   91.8381   24.6969   16.7463 C   0  0  0  0  0  0  0  0  0  0  0  0
   90.5784   24.3039   17.3346 N   0  0  0  0  0  0  0  0  0  0  0  0
   92.9017   24.5848   17.4464 N   0  0  0  0  0  0  0  0  0  0  0  0
   90.8492   36.5903   22.4754 C   0  0  0  0  0  0  0  0  0  0  0  0
   90.6191   36.2534   23.6909 O   0  0  0  0  0  0  0  0  0  0  0  0
   90.3750   37.8496   22.0780 N   0  0  0  0  0  0  0  0  0  0  0  0
   89.6427   38.7650   22.9347 C   0  0  0  0  0  0  0  0  0  0  0  0
   88.2310   38.3608   23.0871 C   0  0  0  0  0  0  0  0  0  0  0  0
   87.3437   38.7949   22.1210 C   0  0  0  0  0  0  0  0  0  0  0  0
   86.0233   38.4948   22.1363 C   0  0  0  0  0  0  0  0  0  0  0  0
   85.5005   37.7069   23.1678 C   0  0  0  0  0  0  0  0  0  0  0  0
   84.0805   37.3888   23.1523 C   0  0  0  0  0  0  0  0  0  0  0  0
   83.4639   37.2776   21.8519 N   0  0  0  0  0  0  0  0  0  0  0  0
   83.4280   37.2213   24.2280 N   0  0  0  0  0  0  0  0  0  0  0  0
   86.3682   37.2568   24.1527 C   0  0  0  0  0  0  0  0  0  0  0  0
   87.7324   37.5881   24.1065 C   0  0  0  0  0  0  0  0  0  0  0  0
  1  2  1  0
  2  3  2  0
  2  4  1  0
  4  5  1  0
  5  6  1  0
  6  7  1  0
  8  7  1  6
  8  9  1  0
  9 10  1  0
 10 11  2  0
 10 12  1  0
 12 13  1  1
 13 14  1  0
 14 15  1  0
 15 16  1  0
 16 17  1  0
 12 18  1  0
 18 19  1  0
 19 20  2  0
 19 21  1  0
 21 22  1  6
 22 23  1  0
 23 24  1  0
 24 25  1  0
 25 26  1  0
 26 27  1  0
 26 28  2  0
 21 29  1  0
 29 30  1  0
 30 31  2  0
 30 32  1  0
 32 33  1  1
 33 34  1  0
 34 35  1  0
 35 36  1  0
 36 37  1  0
 37 38  1  0
 37 39  2  0
 32 40  1  0
 40 41  1  0
 41 42  2  0
 41 43  1  0
 43 44  1  1
 44 45  1  0
 45 46  1  0
 46 47  1  0
 47 48  1  0
 48 49  1  0
 48 50  2  0
 43 51  1  0
 51 52  1  0
 52 53  2  0
 52 54  1  0
 54 55  1  6
 54 56  1  0
 56 57  1  0
 57 58  1  0
 58 59  1  0
 59 60  1  0
 60 61  1  0
 60 62  2  0
  8 63  1  0
 63 64  2  0
 63 65  1  0
 65 66  1  0
 66 67  1  0
 67 68  2  0
 68 69  1  0
 69 70  2  0
 70 71  1  0
 71 72  1  0
 71 73  2  0
 70 74  1  0
 74 75  2  0
 75 67  1  0
M  CHG  8   3   1  17   1  28   1  39   1  50   1  55   1  62   1  73   1
M  END
>  <shape_align_shape_tanimoto>  (3) 
0.30311979519874027

>  <shape_align_color_tanimoto>  (3) 
0.030911028886047989

>  <metric>  (3) 
combo

>  <metric_score>  (3) 
0.167

>  <template_pid>  (3) 
6HLB

>  <template_shape_score>  (3) 
0.303

>  <template_color_score>  (3) 
0.031

>  <template_combo_score>  (3) 
0.167

$$$$
