2BR1_shape_pose
     RDKit          3D

 29 32  0  0  0  0  0  0  0  0999 V2000
   23.1281   -2.5326    8.6446 C   0  0  0  0  0  0  0  0  0  0  0  0
   22.2014   -1.5317    8.2696 O   0  0  0  0  0  0  0  0  0  0  0  0
   20.8783   -1.6163    8.6751 C   0  0  0  0  0  0  0  0  0  0  0  0
   20.3699   -2.6314    9.4454 C   0  0  0  0  0  0  0  0  0  0  0  0
   19.0429   -2.6400    9.8019 C   0  0  0  0  0  0  0  0  0  0  0  0
   18.1473   -1.6349    9.4094 C   0  0  0  0  0  0  0  0  0  0  0  0
   16.7649   -1.7161    9.8313 C   0  0  0  0  0  0  0  0  0  0  0  0
   16.2928   -2.7880   10.4646 O   0  0  0  0  0  0  0  0  0  0  0  0
   15.0502   -2.6585   10.7536 C   0  0  0  0  0  0  0  0  0  0  0  0
   14.2260   -3.5324   11.3941 N   0  0  0  0  0  0  0  0  0  0  0  0
   12.9477   -3.1775   11.5884 C   0  0  0  0  0  0  0  0  0  0  0  0
   12.5204   -1.9823   11.1504 N   0  0  0  0  0  0  0  0  0  0  0  0
   13.3126   -1.1023   10.5161 C   0  0  0  0  0  0  0  0  0  0  0  0
   12.7958    0.1415   10.0789 N   0  0  0  0  0  0  0  0  0  0  0  0
   11.3887    0.4547   10.3294 C   0  0  0  0  0  0  0  0  0  0  0  0
   11.1399    0.5905   11.8046 C   0  0  0  0  0  0  0  0  0  0  0  0
    9.8081    0.8863   12.0900 O   0  0  0  0  0  0  0  0  0  0  0  0
   14.6195   -1.4320   10.3016 C   0  0  0  0  0  0  0  0  0  0  0  0
   15.7157   -0.8359    9.7143 C   0  0  0  0  0  0  0  0  0  0  0  0
   15.7366    0.4496    9.0864 C   0  0  0  0  0  0  0  0  0  0  0  0
   15.3870    0.5003    7.7198 C   0  0  0  0  0  0  0  0  0  0  0  0
   15.3859    1.7000    7.0401 C   0  0  0  0  0  0  0  0  0  0  0  0
   15.7295    2.8566    7.7044 C   0  0  0  0  0  0  0  0  0  0  0  0
   15.7074    4.0330    6.9576 O   0  0  0  0  0  0  0  0  0  0  0  0
   16.0598    5.2245    7.6355 C   0  0  0  0  0  0  0  0  0  0  0  0
   16.0731    2.8212    9.0398 C   0  0  0  0  0  0  0  0  0  0  0  0
   16.0846    1.6352    9.7511 C   0  0  0  0  0  0  0  0  0  0  0  0
   18.6859   -0.6359    8.6422 C   0  0  0  0  0  0  0  0  0  0  0  0
   20.0333   -0.6074    8.2676 C   0  0  0  0  0  0  0  0  0  0  0  0
  1  2  1  0
  2  3  1  0
  3  4  2  0
  4  5  1  0
  5  6  2  0
  6  7  1  0
  7  8  1  0
  8  9  1  0
  9 10  2  0
 10 11  1  0
 11 12  2  0
 12 13  1  0
 13 14  1  0
 14 15  1  0
 15 16  1  0
 16 17  1  0
 13 18  2  0
 18 19  1  0
 19 20  1  0
 20 21  2  0
 21 22  1  0
 22 23  2  0
 23 24  1  0
 24 25  1  0
 23 26  1  0
 26 27  2  0
  6 28  1  0
 28 29  2  0
 29  3  1  0
 19  7  2  0
 27 20  1  0
 18  9  1  0
M  END
>  <shape_align_shape_tanimoto>  (1) 
0.64966848433055202

>  <shape_align_color_tanimoto>  (1) 
0.13116919140128452

>  <metric>  (1) 
shape

>  <metric_score>  (1) 
0.650

>  <template_pid>  (1) 
2BR1

>  <template_shape_score>  (1) 
0.650

>  <template_color_score>  (1) 
0.131

>  <template_combo_score>  (1) 
0.390

$$$$
2BR1_color_pose
     RDKit          3D

 29 32  0  0  0  0  0  0  0  0999 V2000
   23.1099   -2.6992    7.6298 C   0  0  0  0  0  0  0  0  0  0  0  0
   22.5766   -1.5874    8.3532 O   0  0  0  0  0  0  0  0  0  0  0  0
   21.2355   -1.6493    8.7005 C   0  0  0  0  0  0  0  0  0  0  0  0
   20.4505   -2.7344    8.3637 C   0  0  0  0  0  0  0  0  0  0  0  0
   19.1359   -2.7277    8.7389 C   0  0  0  0  0  0  0  0  0  0  0  0
   18.5470   -1.6838    9.4430 C   0  0  0  0  0  0  0  0  0  0  0  0
   17.1433   -1.7109    9.8259 C   0  0  0  0  0  0  0  0  0  0  0  0
   16.6124   -2.5975   10.6025 O   0  0  0  0  0  0  0  0  0  0  0  0
   15.3305   -2.3939   10.7874 C   0  0  0  0  0  0  0  0  0  0  0  0
   14.4109   -3.0735   11.5155 N   0  0  0  0  0  0  0  0  0  0  0  0
   13.1469   -2.6188   11.5147 C   0  0  0  0  0  0  0  0  0  0  0  0
   12.8076   -1.5253   10.8137 N   0  0  0  0  0  0  0  0  0  0  0  0
   13.6608   -0.7973   10.0678 C   0  0  0  0  0  0  0  0  0  0  0  0
   13.2872    0.3601    9.3437 N   0  0  0  0  0  0  0  0  0  0  0  0
   11.9462    0.9018    9.2904 C   0  0  0  0  0  0  0  0  0  0  0  0
   11.0516   -0.0201    8.5084 C   0  0  0  0  0  0  0  0  0  0  0  0
   10.9425   -1.2912    9.0364 O   0  0  0  0  0  0  0  0  0  0  0  0
   14.9824   -1.2690   10.0664 C   0  0  0  0  0  0  0  0  0  0  0  0
   16.1282   -0.8208    9.4471 C   0  0  0  0  0  0  0  0  0  0  0  0
   16.3645    0.2952    8.5817 C   0  0  0  0  0  0  0  0  0  0  0  0
   16.2459    0.1398    7.1933 C   0  0  0  0  0  0  0  0  0  0  0  0
   16.4873    1.1973    6.3306 C   0  0  0  0  0  0  0  0  0  0  0  0
   16.8522    2.4366    6.8125 C   0  0  0  0  0  0  0  0  0  0  0  0
   17.1064    3.5308    6.0009 O   0  0  0  0  0  0  0  0  0  0  0  0
   17.0212    3.5016    4.5919 C   0  0  0  0  0  0  0  0  0  0  0  0
   16.9733    2.6080    8.1677 C   0  0  0  0  0  0  0  0  0  0  0  0
   16.7374    1.5681    9.0445 C   0  0  0  0  0  0  0  0  0  0  0  0
   19.3653   -0.6179    9.7605 C   0  0  0  0  0  0  0  0  0  0  0  0
   20.7022   -0.5856    9.3991 C   0  0  0  0  0  0  0  0  0  0  0  0
  1  2  1  0
  2  3  1  0
  3  4  2  0
  4  5  1  0
  5  6  2  0
  6  7  1  0
  7  8  1  0
  8  9  1  0
  9 10  2  0
 10 11  1  0
 11 12  2  0
 12 13  1  0
 13 14  1  0
 14 15  1  0
 15 16  1  0
 16 17  1  0
 13 18  2  0
 18 19  1  0
 19 20  1  0
 20 21  2  0
 21 22  1  0
 22 23  2  0
 23 24  1  0
 24 25  1  0
 23 26  1  0
 26 27  2  0
  6 28  1  0
 28 29  2  0
 29  3  1  0
 19  7  2  0
 27 20  1  0
 18  9  1  0
M  END
>  <shape_align_shape_tanimoto>  (2) 
0.57802273554649908

>  <shape_align_color_tanimoto>  (2) 
0.14467711765490648

>  <metric>  (2) 
color

>  <metric_score>  (2) 
0.145

>  <template_pid>  (2) 
2BR1

>  <template_shape_score>  (2) 
0.578

>  <template_color_score>  (2) 
0.145

>  <template_combo_score>  (2) 
0.361

$$$$
2BR1_combo_pose
     RDKit          3D

 29 32  0  0  0  0  0  0  0  0999 V2000
   23.1281   -2.5326    8.6446 C   0  0  0  0  0  0  0  0  0  0  0  0
   22.2014   -1.5317    8.2696 O   0  0  0  0  0  0  0  0  0  0  0  0
   20.8783   -1.6163    8.6751 C   0  0  0  0  0  0  0  0  0  0  0  0
   20.3699   -2.6314    9.4454 C   0  0  0  0  0  0  0  0  0  0  0  0
   19.0429   -2.6400    9.8019 C   0  0  0  0  0  0  0  0  0  0  0  0
   18.1473   -1.6349    9.4094 C   0  0  0  0  0  0  0  0  0  0  0  0
   16.7649   -1.7161    9.8313 C   0  0  0  0  0  0  0  0  0  0  0  0
   16.2928   -2.7880   10.4646 O   0  0  0  0  0  0  0  0  0  0  0  0
   15.0502   -2.6585   10.7536 C   0  0  0  0  0  0  0  0  0  0  0  0
   14.2260   -3.5324   11.3941 N   0  0  0  0  0  0  0  0  0  0  0  0
   12.9477   -3.1775   11.5884 C   0  0  0  0  0  0  0  0  0  0  0  0
   12.5204   -1.9823   11.1504 N   0  0  0  0  0  0  0  0  0  0  0  0
   13.3126   -1.1023   10.5161 C   0  0  0  0  0  0  0  0  0  0  0  0
   12.7958    0.1415   10.0789 N   0  0  0  0  0  0  0  0  0  0  0  0
   11.3887    0.4547   10.3294 C   0  0  0  0  0  0  0  0  0  0  0  0
   11.1399    0.5905   11.8046 C   0  0  0  0  0  0  0  0  0  0  0  0
    9.8081    0.8863   12.0900 O   0  0  0  0  0  0  0  0  0  0  0  0
   14.6195   -1.4320   10.3016 C   0  0  0  0  0  0  0  0  0  0  0  0
   15.7157   -0.8359    9.7143 C   0  0  0  0  0  0  0  0  0  0  0  0
   15.7366    0.4496    9.0864 C   0  0  0  0  0  0  0  0  0  0  0  0
   15.3870    0.5003    7.7198 C   0  0  0  0  0  0  0  0  0  0  0  0
   15.3859    1.7000    7.0401 C   0  0  0  0  0  0  0  0  0  0  0  0
   15.7295    2.8566    7.7044 C   0  0  0  0  0  0  0  0  0  0  0  0
   15.7074    4.0330    6.9576 O   0  0  0  0  0  0  0  0  0  0  0  0
   16.0598    5.2245    7.6355 C   0  0  0  0  0  0  0  0  0  0  0  0
   16.0731    2.8212    9.0398 C   0  0  0  0  0  0  0  0  0  0  0  0
   16.0846    1.6352    9.7511 C   0  0  0  0  0  0  0  0  0  0  0  0
   18.6859   -0.6359    8.6422 C   0  0  0  0  0  0  0  0  0  0  0  0
   20.0333   -0.6074    8.2676 C   0  0  0  0  0  0  0  0  0  0  0  0
  1  2  1  0
  2  3  1  0
  3  4  2  0
  4  5  1  0
  5  6  2  0
  6  7  1  0
  7  8  1  0
  8  9  1  0
  9 10  2  0
 10 11  1  0
 11 12  2  0
 12 13  1  0
 13 14  1  0
 14 15  1  0
 15 16  1  0
 16 17  1  0
 13 18  2  0
 18 19  1  0
 19 20  1  0
 20 21  2  0
 21 22  1  0
 22 23  2  0
 23 24  1  0
 24 25  1  0
 23 26  1  0
 26 27  2  0
  6 28  1  0
 28 29  2  0
 29  3  1  0
 19  7  2  0
 27 20  1  0
 18  9  1  0
M  END
>  <shape_align_shape_tanimoto>  (3) 
0.64966848433055202

>  <shape_align_color_tanimoto>  (3) 
0.13116919140128452

>  <metric>  (3) 
combo

>  <metric_score>  (3) 
0.390

>  <template_pid>  (3) 
2BR1

>  <template_shape_score>  (3) 
0.650

>  <template_color_score>  (3) 
0.131

>  <template_combo_score>  (3) 
0.390

$$$$
