3ZM9_shape_pose
     RDKit          3D

 37 41  0  0  0  0  0  0  0  0999 V2000
   23.6849   31.8770  -51.1699 C   0  0  0  0  0  0  0  0  0  0  0  0
   24.9681   31.9041  -50.4681 N   0  0  0  0  0  0  0  0  0  0  0  0
   25.5851   33.1724  -50.1609 C   0  0  0  0  0  0  0  0  0  0  0  0
   25.5301   30.6442  -50.1311 C   0  0  0  0  0  0  0  0  0  0  0  0
   26.6737   30.2078  -50.6252 C   0  0  0  0  0  0  0  0  0  0  0  0
   27.2828   28.9044  -50.2934 C   0  0  0  0  0  0  0  0  0  0  0  0
   26.4657   28.1224  -49.3882 N   0  0  0  0  0  0  0  0  0  0  0  0
   26.9329   26.7890  -49.0300 C   0  0  0  0  0  0  0  0  0  0  0  0
   25.9690   26.1670  -48.0848 C   0  0  0  0  0  0  0  0  0  0  0  0
   26.0830   26.2582  -46.7160 C   0  0  0  0  0  0  0  0  0  0  0  0
   25.1614   25.6758  -45.8695 C   0  0  0  0  0  0  0  0  0  0  0  0
   24.0605   24.9607  -46.3585 C   0  0  0  0  0  0  0  0  0  0  0  0
   23.1149   24.3349  -45.4028 C   0  0  0  0  0  0  0  0  0  0  0  0
   22.0819   25.1955  -44.8378 C   0  0  0  0  0  0  0  0  0  0  0  0
   21.0589   25.9026  -45.5664 C   0  0  0  0  0  0  0  0  0  0  0  0
   20.0113   25.2901  -46.3695 C   0  0  0  0  0  0  0  0  0  0  0  0
   20.3792   24.4847  -47.5390 C   0  0  0  0  0  0  0  0  0  0  0  0
   20.6134   23.1351  -47.5450 C   0  0  0  0  0  0  0  0  0  0  0  0
   20.9418   22.4517  -48.6970 C   0  0  0  0  0  0  0  0  0  0  0  0
   21.0552   23.0703  -49.9008 C   0  0  0  0  0  0  0  0  0  0  0  0
   21.4008   22.4182  -51.1779 C   0  0  0  0  0  0  0  0  0  0  0  0
   20.2219   21.9432  -51.8775 N   0  0  0  0  0  0  0  0  0  0  0  0
   19.6120   20.7531  -51.8089 C   0  0  0  0  0  0  0  0  0  0  0  0
   18.5435   20.7557  -52.6410 N   0  0  0  0  0  0  0  0  0  0  0  0
   18.4818   21.9456  -53.2319 C   0  0  0  0  0  0  0  0  0  0  0  0
   17.6307   22.5308  -54.1584 C   0  0  0  0  0  0  0  0  0  0  0  0
   16.5185   21.7907  -54.6851 N   0  0  0  0  0  0  0  0  0  0  0  0
   17.8106   23.7997  -54.5956 N   0  0  0  0  0  0  0  0  0  0  0  0
   18.8603   24.4734  -54.0869 C   0  0  0  0  0  0  0  0  0  0  0  0
   19.7135   23.9560  -53.1895 N   0  0  0  0  0  0  0  0  0  0  0  0
   19.5314   22.7044  -52.7617 C   0  0  0  0  0  0  0  0  0  0  0  0
   20.8226   24.4499  -49.9287 C   0  0  0  0  0  0  0  0  0  0  0  0
   20.4940   25.1316  -48.7766 C   0  0  0  0  0  0  0  0  0  0  0  0
   23.9605   24.8779  -47.7236 C   0  0  0  0  0  0  0  0  0  0  0  0
   24.8894   25.4652  -48.5767 C   0  0  0  0  0  0  0  0  0  0  0  0
   25.2299   28.5971  -48.8492 C   0  0  0  0  0  0  0  0  0  0  0  0
   24.7909   29.7997  -49.2089 C   0  0  0  0  0  0  0  0  0  0  0  0
  1  2  1  0
  2  3  1  0
  2  4  1  0
  4  5  2  0
  5  6  1  0
  6  7  1  0
  7  8  1  0
  8  9  1  0
  9 10  2  0
 10 11  1  0
 11 12  2  0
 12 13  1  0
 13 14  1  0
 14 15  1  0
 15 16  1  0
 16 17  1  0
 17 18  2  0
 18 19  1  0
 19 20  2  0
 20 21  1  0
 21 22  1  0
 22 23  1  0
 23 24  2  0
 24 25  1  0
 25 26  2  0
 26 27  1  0
 26 28  1  0
 28 29  2  0
 29 30  1  0
 30 31  2  0
 20 32  1  0
 32 33  2  0
 12 34  1  0
 34 35  2  0
  7 36  1  0
 36 37  2  0
 37  4  1  0
 35  9  1  0
 33 17  1  0
 31 22  1  0
 31 25  1  0
M  END
>  <shape_align_shape_tanimoto>  (1) 
0.55999328127745307

>  <shape_align_color_tanimoto>  (1) 
0.046690668264797335

>  <metric>  (1) 
shape

>  <metric_score>  (1) 
0.560

>  <template_pid>  (1) 
3ZM9

>  <template_shape_score>  (1) 
0.560

>  <template_color_score>  (1) 
0.047

>  <template_combo_score>  (1) 
0.303

$$$$
3ZM9_color_pose
     RDKit          3D

 37 41  0  0  0  0  0  0  0  0999 V2000
   26.7339   26.3480  -48.3783 C   0  0  0  0  0  0  0  0  0  0  0  0
   26.0771   25.6442  -47.2999 N   0  0  0  0  0  0  0  0  0  0  0  0
   26.9644   24.9755  -46.3402 C   0  0  0  0  0  0  0  0  0  0  0  0
   24.6621   25.5834  -47.1434 C   0  0  0  0  0  0  0  0  0  0  0  0
   23.8064   26.1759  -47.9371 C   0  0  0  0  0  0  0  0  0  0  0  0
   22.3417   26.1532  -47.8332 C   0  0  0  0  0  0  0  0  0  0  0  0
   21.8766   25.3747  -46.7063 N   0  0  0  0  0  0  0  0  0  0  0  0
   20.4778   25.2329  -46.4217 C   0  0  0  0  0  0  0  0  0  0  0  0
   19.6755   24.5641  -47.4482 C   0  0  0  0  0  0  0  0  0  0  0  0
   19.0075   25.1833  -48.4785 C   0  0  0  0  0  0  0  0  0  0  0  0
   18.2559   24.4351  -49.3797 C   0  0  0  0  0  0  0  0  0  0  0  0
   18.1231   23.0762  -49.3198 C   0  0  0  0  0  0  0  0  0  0  0  0
   17.3278   22.2139  -50.1718 C   0  0  0  0  0  0  0  0  0  0  0  0
   17.8933   21.6007  -51.3761 C   0  0  0  0  0  0  0  0  0  0  0  0
   18.3731   22.3765  -52.5143 C   0  0  0  0  0  0  0  0  0  0  0  0
   19.5225   23.2900  -52.4580 C   0  0  0  0  0  0  0  0  0  0  0  0
   20.8012   22.5842  -52.0869 C   0  0  0  0  0  0  0  0  0  0  0  0
   21.3452   22.6213  -50.8323 C   0  0  0  0  0  0  0  0  0  0  0  0
   22.4899   21.8977  -50.6012 C   0  0  0  0  0  0  0  0  0  0  0  0
   23.1170   21.1410  -51.5602 C   0  0  0  0  0  0  0  0  0  0  0  0
   24.3598   20.3641  -51.3332 C   0  0  0  0  0  0  0  0  0  0  0  0
   24.0895   19.1473  -50.5518 N   0  0  0  0  0  0  0  0  0  0  0  0
   23.7139   17.9324  -51.0031 C   0  0  0  0  0  0  0  0  0  0  0  0
   23.5617   17.1024  -49.9265 N   0  0  0  0  0  0  0  0  0  0  0  0
   23.8424   17.7970  -48.8051 C   0  0  0  0  0  0  0  0  0  0  0  0
   23.8623   17.4918  -47.4606 C   0  0  0  0  0  0  0  0  0  0  0  0
   23.5244   16.1729  -47.0009 N   0  0  0  0  0  0  0  0  0  0  0  0
   24.2064   18.4603  -46.5638 N   0  0  0  0  0  0  0  0  0  0  0  0
   24.5266   19.7189  -46.9953 C   0  0  0  0  0  0  0  0  0  0  0  0
   24.5095   20.0246  -48.3061 N   0  0  0  0  0  0  0  0  0  0  0  0
   24.1739   19.0797  -49.1885 C   0  0  0  0  0  0  0  0  0  0  0  0
   22.5267   21.1318  -52.8311 C   0  0  0  0  0  0  0  0  0  0  0  0
   21.3782   21.8429  -53.1071 C   0  0  0  0  0  0  0  0  0  0  0  0
   18.8128   22.4435  -48.2613 C   0  0  0  0  0  0  0  0  0  0  0  0
   19.5533   23.1887  -47.3733 C   0  0  0  0  0  0  0  0  0  0  0  0
   22.8210   24.7407  -45.8604 C   0  0  0  0  0  0  0  0  0  0  0  0
   24.1279   24.8105  -46.0258 C   0  0  0  0  0  0  0  0  0  0  0  0
  1  2  1  0
  2  3  1  0
  2  4  1  0
  4  5  2  0
  5  6  1  0
  6  7  1  0
  7  8  1  0
  8  9  1  0
  9 10  2  0
 10 11  1  0
 11 12  2  0
 12 13  1  0
 13 14  1  0
 14 15  1  0
 15 16  1  0
 16 17  1  0
 17 18  2  0
 18 19  1  0
 19 20  2  0
 20 21  1  0
 21 22  1  0
 22 23  1  0
 23 24  2  0
 24 25  1  0
 25 26  2  0
 26 27  1  0
 26 28  1  0
 28 29  2  0
 29 30  1  0
 30 31  2  0
 20 32  1  0
 32 33  2  0
 12 34  1  0
 34 35  2  0
  7 36  1  0
 36 37  2  0
 37  4  1  0
 35  9  1  0
 33 17  1  0
 31 22  1  0
 31 25  1  0
M  END
>  <shape_align_shape_tanimoto>  (2) 
0.41340987807982915

>  <shape_align_color_tanimoto>  (2) 
0.080850939677645964

>  <metric>  (2) 
color

>  <metric_score>  (2) 
0.081

>  <template_pid>  (2) 
3ZM9

>  <template_shape_score>  (2) 
0.413

>  <template_color_score>  (2) 
0.081

>  <template_combo_score>  (2) 
0.247

$$$$
3ZM9_combo_pose
     RDKit          3D

 37 41  0  0  0  0  0  0  0  0999 V2000
   23.6849   31.8770  -51.1699 C   0  0  0  0  0  0  0  0  0  0  0  0
   24.9681   31.9041  -50.4681 N   0  0  0  0  0  0  0  0  0  0  0  0
   25.5851   33.1724  -50.1609 C   0  0  0  0  0  0  0  0  0  0  0  0
   25.5301   30.6442  -50.1311 C   0  0  0  0  0  0  0  0  0  0  0  0
   26.6737   30.2078  -50.6252 C   0  0  0  0  0  0  0  0  0  0  0  0
   27.2828   28.9044  -50.2934 C   0  0  0  0  0  0  0  0  0  0  0  0
   26.4657   28.1224  -49.3882 N   0  0  0  0  0  0  0  0  0  0  0  0
   26.9329   26.7890  -49.0300 C   0  0  0  0  0  0  0  0  0  0  0  0
   25.9690   26.1670  -48.0848 C   0  0  0  0  0  0  0  0  0  0  0  0
   26.0830   26.2582  -46.7160 C   0  0  0  0  0  0  0  0  0  0  0  0
   25.1614   25.6758  -45.8695 C   0  0  0  0  0  0  0  0  0  0  0  0
   24.0605   24.9607  -46.3585 C   0  0  0  0  0  0  0  0  0  0  0  0
   23.1149   24.3349  -45.4028 C   0  0  0  0  0  0  0  0  0  0  0  0
   22.0819   25.1955  -44.8378 C   0  0  0  0  0  0  0  0  0  0  0  0
   21.0589   25.9026  -45.5664 C   0  0  0  0  0  0  0  0  0  0  0  0
   20.0113   25.2901  -46.3695 C   0  0  0  0  0  0  0  0  0  0  0  0
   20.3792   24.4847  -47.5390 C   0  0  0  0  0  0  0  0  0  0  0  0
   20.6134   23.1351  -47.5450 C   0  0  0  0  0  0  0  0  0  0  0  0
   20.9418   22.4517  -48.6970 C   0  0  0  0  0  0  0  0  0  0  0  0
   21.0552   23.0703  -49.9008 C   0  0  0  0  0  0  0  0  0  0  0  0
   21.4008   22.4182  -51.1779 C   0  0  0  0  0  0  0  0  0  0  0  0
   20.2219   21.9432  -51.8775 N   0  0  0  0  0  0  0  0  0  0  0  0
   19.6120   20.7531  -51.8089 C   0  0  0  0  0  0  0  0  0  0  0  0
   18.5435   20.7557  -52.6410 N   0  0  0  0  0  0  0  0  0  0  0  0
   18.4818   21.9456  -53.2319 C   0  0  0  0  0  0  0  0  0  0  0  0
   17.6307   22.5308  -54.1584 C   0  0  0  0  0  0  0  0  0  0  0  0
   16.5185   21.7907  -54.6851 N   0  0  0  0  0  0  0  0  0  0  0  0
   17.8106   23.7997  -54.5956 N   0  0  0  0  0  0  0  0  0  0  0  0
   18.8603   24.4734  -54.0869 C   0  0  0  0  0  0  0  0  0  0  0  0
   19.7135   23.9560  -53.1895 N   0  0  0  0  0  0  0  0  0  0  0  0
   19.5314   22.7044  -52.7617 C   0  0  0  0  0  0  0  0  0  0  0  0
   20.8226   24.4499  -49.9287 C   0  0  0  0  0  0  0  0  0  0  0  0
   20.4940   25.1316  -48.7766 C   0  0  0  0  0  0  0  0  0  0  0  0
   23.9605   24.8779  -47.7236 C   0  0  0  0  0  0  0  0  0  0  0  0
   24.8894   25.4652  -48.5767 C   0  0  0  0  0  0  0  0  0  0  0  0
   25.2299   28.5971  -48.8492 C   0  0  0  0  0  0  0  0  0  0  0  0
   24.7909   29.7997  -49.2089 C   0  0  0  0  0  0  0  0  0  0  0  0
  1  2  1  0
  2  3  1  0
  2  4  1  0
  4  5  2  0
  5  6  1  0
  6  7  1  0
  7  8  1  0
  8  9  1  0
  9 10  2  0
 10 11  1  0
 11 12  2  0
 12 13  1  0
 13 14  1  0
 14 15  1  0
 15 16  1  0
 16 17  1  0
 17 18  2  0
 18 19  1  0
 19 20  2  0
 20 21  1  0
 21 22  1  0
 22 23  1  0
 23 24  2  0
 24 25  1  0
 25 26  2  0
 26 27  1  0
 26 28  1  0
 28 29  2  0
 29 30  1  0
 30 31  2  0
 20 32  1  0
 32 33  2  0
 12 34  1  0
 34 35  2  0
  7 36  1  0
 36 37  2  0
 37  4  1  0
 35  9  1  0
 33 17  1  0
 31 22  1  0
 31 25  1  0
M  END
>  <shape_align_shape_tanimoto>  (3) 
0.55999328127745307

>  <shape_align_color_tanimoto>  (3) 
0.046690668264797335

>  <metric>  (3) 
combo

>  <metric_score>  (3) 
0.303

>  <template_pid>  (3) 
3ZM9

>  <template_shape_score>  (3) 
0.560

>  <template_color_score>  (3) 
0.047

>  <template_combo_score>  (3) 
0.303

$$$$
