4IVC_shape_pose
     RDKit          3D

 24 27  0  0  0  0  0  0  0  0999 V2000
   -8.7378    4.2779   54.6294 C   0  0  0  0  0  0  0  0  0  0  0  0
   -9.2482    5.5862   54.0636 C   0  0  1  0  0  0  0  0  0  0  0  0
   -8.6457    6.5926   54.8261 O   0  0  0  0  0  0  0  0  0  0  0  0
   -8.8991    5.6773   52.6153 C   0  0  0  0  0  0  0  0  0  0  0  0
   -8.5001    4.6284   51.8994 N   0  0  0  0  0  0  0  0  0  0  0  0
   -8.2638    5.0054   50.6606 C   0  0  0  0  0  0  0  0  0  0  0  0
   -7.8362    4.3192   49.5418 C   0  0  0  0  0  0  0  0  0  0  0  0
   -7.6646    4.9437   48.3616 N   0  0  0  0  0  0  0  0  0  0  0  0
   -7.9266    6.2635   48.3170 C   0  0  0  0  0  0  0  0  0  0  0  0
   -7.8241    7.0868   47.2541 N   0  0  0  0  0  0  0  0  0  0  0  0
   -8.1836    8.3149   47.6715 C   0  0  0  0  0  0  0  0  0  0  0  0
   -8.5222    8.2843   49.0190 C   0  0  0  0  0  0  0  0  0  0  0  0
   -8.3556    6.9884   49.4099 C   0  0  0  0  0  0  0  0  0  0  0  0
   -8.5375    6.3760   50.6192 C   0  0  0  0  0  0  0  0  0  0  0  0
   -8.9339    6.8040   51.8296 N   0  0  0  0  0  0  0  0  0  0  0  0
   -9.3225    8.1431   52.2309 C   0  0  1  0  0  0  0  0  0  0  0  0
   -8.2144    9.1176   52.3751 C   0  0  0  0  0  0  0  0  0  0  0  0
   -8.8523   10.3747   52.9725 C   0  0  0  0  0  0  0  0  0  0  0  0
   -9.6093   10.9535   51.8111 C   0  0  2  0  0  0  0  0  0  0  0  0
  -10.0763   12.3671   52.1346 C   0  0  0  0  0  0  0  0  0  0  0  0
   -8.8592   13.1523   52.4044 C   0  0  0  0  0  0  0  0  0  0  0  0
   -7.9147   13.7743   52.6041 N   0  0  0  0  0  0  0  0  0  0  0  0
  -10.7684   10.0831   51.4803 C   0  0  0  0  0  0  0  0  0  0  0  0
  -10.6290    8.6232   51.6808 C   0  0  0  0  0  0  0  0  0  0  0  0
  2  1  1  1
  2  3  1  0
  2  4  1  0
  4  5  2  0
  5  6  1  0
  6  7  2  0
  7  8  1  0
  8  9  2  0
  9 10  1  0
 10 11  1  0
 11 12  2  0
 12 13  1  0
 13 14  2  0
 14 15  1  0
 16 15  1  6
 16 17  1  0
 17 18  1  0
 18 19  1  0
 19 20  1  1
 20 21  1  0
 21 22  3  0
 19 23  1  0
 23 24  1  0
 15  4  1  0
 24 16  1  0
 14  6  1  0
 13  9  1  0
M  END
>  <shape_align_shape_tanimoto>  (1) 
0.80480845499124432

>  <shape_align_color_tanimoto>  (1) 
0.041032371947523918

>  <metric>  (1) 
shape

>  <metric_score>  (1) 
0.805

>  <template_pid>  (1) 
4IVC

>  <template_shape_score>  (1) 
0.805

>  <template_color_score>  (1) 
0.041

>  <template_combo_score>  (1) 
0.423

$$$$
4IVC_color_pose
     RDKit          3D

 24 27  0  0  0  0  0  0  0  0999 V2000
   -9.5115    7.4263   47.3821 C   0  0  0  0  0  0  0  0  0  0  0  0
   -8.4033    7.6335   48.3486 C   0  0  1  0  0  0  0  0  0  0  0  0
   -7.8728    8.9135   48.3990 O   0  0  0  0  0  0  0  0  0  0  0  0
   -8.4706    6.9052   49.6266 C   0  0  0  0  0  0  0  0  0  0  0  0
   -8.1300    5.5682   49.6844 N   0  0  0  0  0  0  0  0  0  0  0  0
   -8.2467    5.1361   50.9324 C   0  0  0  0  0  0  0  0  0  0  0  0
   -8.0125    3.8913   51.4622 C   0  0  0  0  0  0  0  0  0  0  0  0
   -8.2001    3.7048   52.7811 N   0  0  0  0  0  0  0  0  0  0  0  0
   -8.6113    4.7473   53.5375 C   0  0  0  0  0  0  0  0  0  0  0  0
   -8.8371    4.7390   54.8695 N   0  0  0  0  0  0  0  0  0  0  0  0
   -9.2174    5.9858   55.1945 C   0  0  0  0  0  0  0  0  0  0  0  0
   -9.2355    6.7976   54.0636 C   0  0  0  0  0  0  0  0  0  0  0  0
   -8.8501    5.9988   53.0216 C   0  0  0  0  0  0  0  0  0  0  0  0
   -8.6687    6.2221   51.6745 C   0  0  0  0  0  0  0  0  0  0  0  0
   -8.8092    7.3169   50.8673 N   0  0  0  0  0  0  0  0  0  0  0  0
   -9.2331    8.6373   51.2041 C   0  0  1  0  0  0  0  0  0  0  0  0
   -8.1676    9.6768   51.3998 C   0  0  0  0  0  0  0  0  0  0  0  0
   -8.5507   11.0304   50.8682 C   0  0  0  0  0  0  0  0  0  0  0  0
   -9.8569   11.4092   51.4878 C   0  0  2  0  0  0  0  0  0  0  0  0
   -9.8270   11.5462   52.9856 C   0  0  0  0  0  0  0  0  0  0  0  0
   -8.8685   12.5797   53.3608 C   0  0  0  0  0  0  0  0  0  0  0  0
   -8.1081   13.3883   53.6475 N   0  0  0  0  0  0  0  0  0  0  0  0
  -10.9072   10.5098   50.9550 C   0  0  0  0  0  0  0  0  0  0  0  0
  -10.4639    9.1518   50.4896 C   0  0  0  0  0  0  0  0  0  0  0  0
  2  1  1  1
  2  3  1  0
  2  4  1  0
  4  5  2  0
  5  6  1  0
  6  7  2  0
  7  8  1  0
  8  9  2  0
  9 10  1  0
 10 11  1  0
 11 12  2  0
 12 13  1  0
 13 14  2  0
 14 15  1  0
 16 15  1  6
 16 17  1  0
 17 18  1  0
 18 19  1  0
 19 20  1  1
 20 21  1  0
 21 22  3  0
 19 23  1  0
 23 24  1  0
 15  4  1  0
 24 16  1  0
 14  6  1  0
 13  9  1  0
M  END
>  <shape_align_shape_tanimoto>  (2) 
0.74937614903474536

>  <shape_align_color_tanimoto>  (2) 
0.15295544831288074

>  <metric>  (2) 
color

>  <metric_score>  (2) 
0.153

>  <template_pid>  (2) 
4IVC

>  <template_shape_score>  (2) 
0.749

>  <template_color_score>  (2) 
0.153

>  <template_combo_score>  (2) 
0.451

$$$$
4IVC_combo_pose
     RDKit          3D

 24 27  0  0  0  0  0  0  0  0999 V2000
   -9.7242    8.3911   47.5609 C   0  0  0  0  0  0  0  0  0  0  0  0
   -8.3157    8.1748   48.1096 C   0  0  1  0  0  0  0  0  0  0  0  0
   -7.7535    9.3871   48.3941 O   0  0  0  0  0  0  0  0  0  0  0  0
   -8.3209    7.1869   49.2143 C   0  0  0  0  0  0  0  0  0  0  0  0
   -7.9147    5.9148   49.0520 N   0  0  0  0  0  0  0  0  0  0  0  0
   -8.0279    5.2682   50.1903 C   0  0  0  0  0  0  0  0  0  0  0  0
   -7.7451    3.9655   50.5338 C   0  0  0  0  0  0  0  0  0  0  0  0
   -7.9657    3.5723   51.8077 N   0  0  0  0  0  0  0  0  0  0  0  0
   -8.4504    4.4229   52.7318 C   0  0  0  0  0  0  0  0  0  0  0  0
   -8.7218    4.2119   54.0138 N   0  0  0  0  0  0  0  0  0  0  0  0
   -9.1800    5.3832   54.4950 C   0  0  0  0  0  0  0  0  0  0  0  0
   -9.1975    6.3452   53.5028 C   0  0  0  0  0  0  0  0  0  0  0  0
   -8.7304    5.7253   52.3778 C   0  0  0  0  0  0  0  0  0  0  0  0
   -8.5319    6.1925   51.1055 C   0  0  0  0  0  0  0  0  0  0  0  0
   -8.7190    7.3849   50.5150 N   0  0  0  0  0  0  0  0  0  0  0  0
   -9.2297    8.6154   51.0631 C   0  0  1  0  0  0  0  0  0  0  0  0
  -10.7031    8.6458   51.3351 C   0  0  0  0  0  0  0  0  0  0  0  0
  -11.1277   10.1209   51.2171 C   0  0  0  0  0  0  0  0  0  0  0  0
  -10.2402   10.9530   52.0704 C   0  0  2  0  0  0  0  0  0  0  0  0
   -9.5202   12.0641   51.3060 C   0  0  0  0  0  0  0  0  0  0  0  0
   -8.6812   12.8005   52.2814 C   0  0  0  0  0  0  0  0  0  0  0  0
   -8.0346   13.3758   53.0511 N   0  0  0  0  0  0  0  0  0  0  0  0
   -9.2669   10.2273   52.9260 C   0  0  0  0  0  0  0  0  0  0  0  0
   -8.3845    9.3166   52.0693 C   0  0  0  0  0  0  0  0  0  0  0  0
  2  1  1  1
  2  3  1  0
  2  4  1  0
  4  5  2  0
  5  6  1  0
  6  7  2  0
  7  8  1  0
  8  9  2  0
  9 10  1  0
 10 11  1  0
 11 12  2  0
 12 13  1  0
 13 14  2  0
 14 15  1  0
 16 15  1  1
 16 17  1  0
 17 18  1  0
 18 19  1  0
 19 20  1  6
 20 21  1  0
 21 22  3  0
 19 23  1  0
 23 24  1  0
 15  4  1  0
 24 16  1  0
 14  6  1  0
 13  9  1  0
M  END
>  <shape_align_shape_tanimoto>  (3) 
0.79762134052306222

>  <shape_align_color_tanimoto>  (3) 
0.14366065544520193

>  <metric>  (3) 
combo

>  <metric_score>  (3) 
0.471

>  <template_pid>  (3) 
4IVC

>  <template_shape_score>  (3) 
0.798

>  <template_color_score>  (3) 
0.144

>  <template_combo_score>  (3) 
0.471

$$$$
