4X7H_shape_pose
     RDKit          3D

 43 48  0  0  0  0  0  0  0  0999 V2000
  -32.0012    7.8186  -16.4509 C   0  0  0  0  0  0  0  0  0  0  0  0
  -31.3369    7.9635  -15.2258 O   0  0  0  0  0  0  0  0  0  0  0  0
  -30.7594    6.8997  -14.5230 C   0  0  0  0  0  0  0  0  0  0  0  0
  -30.7385    5.5964  -14.9635 C   0  0  0  0  0  0  0  0  0  0  0  0
  -30.1163    4.5748  -14.2074 C   0  0  0  0  0  0  0  0  0  0  0  0
  -30.0399    3.3136  -14.6185 N   0  0  0  0  0  0  0  0  0  0  0  0
  -29.3817    2.4038  -13.8603 C   0  0  0  0  0  0  0  0  0  0  0  0
  -28.7694    2.6730  -12.6803 C   0  0  0  0  0  0  0  0  0  0  0  0
  -28.8116    3.9838  -12.1769 C   0  0  0  0  0  0  0  0  0  0  0  0
  -28.3234    4.5137  -11.1270 O   0  0  0  0  0  0  0  0  0  0  0  0
  -27.8061    5.0127  -10.0487 C   0  0  0  0  0  0  0  0  0  0  0  0
  -26.7228    5.9328  -10.3443 C   0  0  0  0  0  0  0  0  0  0  0  0
  -26.0522    6.6026   -9.3873 C   0  0  0  0  0  0  0  0  0  0  0  0
  -26.4584    6.3629   -8.0449 C   0  0  0  0  0  0  0  0  0  0  0  0
  -25.8758    7.2478   -7.1243 N   0  0  0  0  0  0  0  0  0  0  0  0
  -24.8074    7.2420   -6.2662 C   0  0  0  0  0  0  0  0  0  0  0  0
  -24.0279    6.2675   -6.0787 O   0  0  0  0  0  0  0  0  0  0  0  0
  -24.5548    8.5226   -5.4875 C   0  0  0  0  0  0  0  0  0  0  0  0
  -23.9160    8.6520   -4.3111 C   0  0  0  0  0  0  0  0  0  0  0  0
  -23.3736    7.6271   -3.4321 C   0  0  0  0  0  0  0  0  0  0  0  0
  -22.1152    7.6641   -2.8873 C   0  0  0  0  0  0  0  0  0  0  0  0
  -21.5825    6.7398   -2.0382 C   0  0  0  0  0  0  0  0  0  0  0  0
  -22.3871    5.6910   -1.7117 N   0  0  0  0  0  0  0  0  0  0  0  0
  -23.6327    5.5669   -2.1937 C   0  0  0  0  0  0  0  0  0  0  0  0
  -24.1568    6.5128   -3.0538 C   0  0  0  0  0  0  0  0  0  0  0  0
  -23.8813   10.0240   -4.0543 N   0  0  0  0  0  0  0  0  0  0  0  0
  -23.3288   10.7195   -2.9261 C   0  0  0  0  0  0  0  0  0  0  0  0
  -24.4790   10.6403   -5.0501 N   0  0  0  0  0  0  0  0  0  0  0  0
  -24.7116   12.0306   -5.2751 C   0  0  0  0  0  0  0  0  0  0  0  0
  -25.9874   12.5345   -5.2407 C   0  0  0  0  0  0  0  0  0  0  0  0
  -26.2651   13.9062   -5.4973 C   0  0  0  0  0  0  0  0  0  0  0  0
  -25.1994   14.7217   -5.7858 C   0  0  0  0  0  0  0  0  0  0  0  0
  -23.8729   14.2466   -5.8321 C   0  0  0  0  0  0  0  0  0  0  0  0
  -23.7061   12.9354   -5.5745 C   0  0  0  0  0  0  0  0  0  0  0  0
  -24.9231    9.7190   -5.9851 C   0  0  0  0  0  0  0  0  0  0  0  0
  -25.5147   10.1426   -7.0006 O   0  0  0  0  0  0  0  0  0  0  0  0
  -27.4496    5.5004   -7.7869 N   0  0  0  0  0  0  0  0  0  0  0  0
  -28.1226    4.8296   -8.7390 C   0  0  0  0  0  0  0  0  0  0  0  0
  -29.5333    4.8972  -13.0300 C   0  0  0  0  0  0  0  0  0  0  0  0
  -29.5821    6.2100  -12.6237 C   0  0  0  0  0  0  0  0  0  0  0  0
  -30.1771    7.2269  -13.3266 C   0  0  0  0  0  0  0  0  0  0  0  0
  -30.1419    8.4901  -12.7650 O   0  0  0  0  0  0  0  0  0  0  0  0
  -29.5452    8.6815  -11.5160 C   0  0  0  0  0  0  0  0  0  0  0  0
  1  2  1  0
  2  3  1  0
  3  4  2  0
  4  5  1  0
  5  6  2  0
  6  7  1  0
  7  8  2  0
  8  9  1  0
  9 10  1  0
 10 11  1  0
 11 12  2  0
 12 13  1  0
 13 14  2  0
 14 15  1  0
 15 16  1  0
 16 17  2  0
 16 18  1  0
 18 19  2  0
 19 20  1  0
 20 21  2  0
 21 22  1  0
 22 23  2  0
 23 24  1  0
 24 25  2  0
 19 26  1  0
 26 27  1  0
 26 28  1  0
 28 29  1  0
 29 30  2  0
 30 31  1  0
 31 32  2  0
 32 33  1  0
 33 34  2  0
 28 35  1  0
 35 36  2  0
 14 37  1  0
 37 38  2  0
  9 39  2  0
 39 40  1  0
 40 41  2  0
 41 42  1  0
 42 43  1  0
 41  3  1  0
 39  5  1  0
 38 11  1  0
 35 18  1  0
 25 20  1  0
 34 29  1  0
M  END
>  <shape_align_shape_tanimoto>  (1) 
0.60352415293105943

>  <shape_align_color_tanimoto>  (1) 
0.038951568003457483

>  <metric>  (1) 
shape

>  <metric_score>  (1) 
0.604

>  <template_pid>  (1) 
4X7H

>  <template_shape_score>  (1) 
0.604

>  <template_color_score>  (1) 
0.039

>  <template_combo_score>  (1) 
0.321

$$$$
4X7H_color_pose
     RDKit          3D

 43 48  0  0  0  0  0  0  0  0999 V2000
  -31.5364    3.2488  -18.0065 C   0  0  0  0  0  0  0  0  0  0  0  0
  -30.4302    4.0873  -17.6636 O   0  0  0  0  0  0  0  0  0  0  0  0
  -30.1226    4.3875  -16.3320 C   0  0  0  0  0  0  0  0  0  0  0  0
  -30.8646    3.8960  -15.2666 C   0  0  0  0  0  0  0  0  0  0  0  0
  -30.5349    4.2127  -13.9338 C   0  0  0  0  0  0  0  0  0  0  0  0
  -31.2681    3.7261  -12.9009 N   0  0  0  0  0  0  0  0  0  0  0  0
  -30.9284    4.0478  -11.6166 C   0  0  0  0  0  0  0  0  0  0  0  0
  -29.8305    4.8754  -11.3481 C   0  0  0  0  0  0  0  0  0  0  0  0
  -29.0898    5.3651  -12.4261 C   0  0  0  0  0  0  0  0  0  0  0  0
  -27.9858    6.1942  -12.2147 O   0  0  0  0  0  0  0  0  0  0  0  0
  -27.5337    6.5969  -10.9721 C   0  0  0  0  0  0  0  0  0  0  0  0
  -28.0696    7.7877  -10.4544 C   0  0  0  0  0  0  0  0  0  0  0  0
  -27.6310    8.2147   -9.2054 C   0  0  0  0  0  0  0  0  0  0  0  0
  -26.6888    7.5143   -8.4529 C   0  0  0  0  0  0  0  0  0  0  0  0
  -26.2564    7.9949   -7.1510 N   0  0  0  0  0  0  0  0  0  0  0  0
  -25.2983    7.2613   -6.4106 C   0  0  0  0  0  0  0  0  0  0  0  0
  -24.8766    6.1747   -6.9727 O   0  0  0  0  0  0  0  0  0  0  0  0
  -24.7661    7.6185   -5.1006 C   0  0  0  0  0  0  0  0  0  0  0  0
  -24.7929    8.7649   -4.3572 C   0  0  0  0  0  0  0  0  0  0  0  0
  -25.2886   10.0758   -4.6975 C   0  0  0  0  0  0  0  0  0  0  0  0
  -26.1609   10.7016   -3.7974 C   0  0  0  0  0  0  0  0  0  0  0  0
  -26.6695   11.9782   -4.0048 C   0  0  0  0  0  0  0  0  0  0  0  0
  -26.2953   12.6341   -5.1331 N   0  0  0  0  0  0  0  0  0  0  0  0
  -25.4639   12.0856   -6.0296 C   0  0  0  0  0  0  0  0  0  0  0  0
  -24.9509   10.8093   -5.8295 C   0  0  0  0  0  0  0  0  0  0  0  0
  -24.1802    8.5087   -3.1443 N   0  0  0  0  0  0  0  0  0  0  0  0
  -23.9906    9.4617   -2.0393 C   0  0  0  0  0  0  0  0  0  0  0  0
  -23.7699    7.2465   -3.1030 N   0  0  0  0  0  0  0  0  0  0  0  0
  -23.0843    6.5973   -2.0044 C   0  0  0  0  0  0  0  0  0  0  0  0
  -21.7862    6.9012   -1.6636 C   0  0  0  0  0  0  0  0  0  0  0  0
  -21.1928    6.2274   -0.5857 C   0  0  0  0  0  0  0  0  0  0  0  0
  -21.9228    5.2634    0.1227 C   0  0  0  0  0  0  0  0  0  0  0  0
  -23.2348    4.9556   -0.2210 C   0  0  0  0  0  0  0  0  0  0  0  0
  -23.8084    5.6305   -1.2898 C   0  0  0  0  0  0  0  0  0  0  0  0
  -24.1085    6.6692   -4.2794 C   0  0  0  0  0  0  0  0  0  0  0  0
  -23.8490    5.4590   -4.5457 O   0  0  0  0  0  0  0  0  0  0  0  0
  -26.1844    6.3584   -8.9821 N   0  0  0  0  0  0  0  0  0  0  0  0
  -26.5940    5.9071  -10.2111 C   0  0  0  0  0  0  0  0  0  0  0  0
  -29.4305    5.0415  -13.7328 C   0  0  0  0  0  0  0  0  0  0  0  0
  -28.6890    5.5338  -14.7770 C   0  0  0  0  0  0  0  0  0  0  0  0
  -29.0247    5.2135  -16.0935 C   0  0  0  0  0  0  0  0  0  0  0  0
  -28.2832    5.7040  -17.1706 O   0  0  0  0  0  0  0  0  0  0  0  0
  -27.1540    6.5543  -16.9109 C   0  0  0  0  0  0  0  0  0  0  0  0
  1  2  1  0
  2  3  1  0
  3  4  2  0
  4  5  1  0
  5  6  2  0
  6  7  1  0
  7  8  2  0
  8  9  1  0
  9 10  1  0
 10 11  1  0
 11 12  2  0
 12 13  1  0
 13 14  2  0
 14 15  1  0
 15 16  1  0
 16 17  2  0
 16 18  1  0
 18 19  2  0
 19 20  1  0
 20 21  2  0
 21 22  1  0
 22 23  2  0
 23 24  1  0
 24 25  2  0
 19 26  1  0
 26 27  1  0
 26 28  1  0
 28 29  1  0
 29 30  2  0
 30 31  1  0
 31 32  2  0
 32 33  1  0
 33 34  2  0
 28 35  1  0
 35 36  2  0
 14 37  1  0
 37 38  2  0
  9 39  2  0
 39 40  1  0
 40 41  2  0
 41 42  1  0
 42 43  1  0
 41  3  1  0
 39  5  1  0
 38 11  1  0
 35 18  1  0
 25 20  1  0
 34 29  1  0
M  END
>  <shape_align_shape_tanimoto>  (2) 
0.48178812034616803

>  <shape_align_color_tanimoto>  (2) 
0.16732274696289351

>  <metric>  (2) 
color

>  <metric_score>  (2) 
0.167

>  <template_pid>  (2) 
4X7H

>  <template_shape_score>  (2) 
0.482

>  <template_color_score>  (2) 
0.167

>  <template_combo_score>  (2) 
0.325

$$$$
4X7H_combo_pose
     RDKit          3D

 43 48  0  0  0  0  0  0  0  0999 V2000
  -31.4482    4.3136  -17.1286 C   0  0  0  0  0  0  0  0  0  0  0  0
  -30.8128    3.5076  -16.1827 O   0  0  0  0  0  0  0  0  0  0  0  0
  -30.2072    3.9902  -15.0577 C   0  0  0  0  0  0  0  0  0  0  0  0
  -30.1999    5.3410  -14.8041 C   0  0  0  0  0  0  0  0  0  0  0  0
  -29.5846    5.8146  -13.6639 C   0  0  0  0  0  0  0  0  0  0  0  0
  -29.5793    7.1124  -13.4230 N   0  0  0  0  0  0  0  0  0  0  0  0
  -29.0013    7.6280  -12.3388 C   0  0  0  0  0  0  0  0  0  0  0  0
  -28.3911    6.7755  -11.4441 C   0  0  0  0  0  0  0  0  0  0  0  0
  -28.3999    5.4343  -11.6989 C   0  0  0  0  0  0  0  0  0  0  0  0
  -27.7807    4.5822  -10.7886 O   0  0  0  0  0  0  0  0  0  0  0  0
  -27.1799    5.1097   -9.6626 C   0  0  0  0  0  0  0  0  0  0  0  0
  -27.9373    5.2454   -8.5315 C   0  0  0  0  0  0  0  0  0  0  0  0
  -27.3658    5.7648   -7.4044 C   0  0  0  0  0  0  0  0  0  0  0  0
  -26.0522    6.1201   -7.4845 C   0  0  0  0  0  0  0  0  0  0  0  0
  -25.3463    6.6724   -6.3773 N   0  0  0  0  0  0  0  0  0  0  0  0
  -25.3395    8.0740   -6.2061 C   0  0  0  0  0  0  0  0  0  0  0  0
  -25.9773    8.7210   -7.0751 O   0  0  0  0  0  0  0  0  0  0  0  0
  -24.6467    8.6709   -5.1129 C   0  0  0  0  0  0  0  0  0  0  0  0
  -24.4934   10.0003   -4.8515 C   0  0  0  0  0  0  0  0  0  0  0  0
  -24.9219   11.1542   -5.5963 C   0  0  0  0  0  0  0  0  0  0  0  0
  -24.7336   11.3625   -6.9070 C   0  0  0  0  0  0  0  0  0  0  0  0
  -25.1933   12.4931   -7.5426 C   0  0  0  0  0  0  0  0  0  0  0  0
  -25.8493   13.4175   -6.8357 N   0  0  0  0  0  0  0  0  0  0  0  0
  -26.0484   13.2324   -5.5297 C   0  0  0  0  0  0  0  0  0  0  0  0
  -25.6024   12.1236   -4.8861 C   0  0  0  0  0  0  0  0  0  0  0  0
  -23.7976   10.1166   -3.7070 N   0  0  0  0  0  0  0  0  0  0  0  0
  -23.4098   11.3419   -3.0593 C   0  0  0  0  0  0  0  0  0  0  0  0
  -23.5059    8.9436   -3.2378 N   0  0  0  0  0  0  0  0  0  0  0  0
  -22.7783    8.6774   -2.0445 C   0  0  0  0  0  0  0  0  0  0  0  0
  -23.4485    8.1529   -0.9754 C   0  0  0  0  0  0  0  0  0  0  0  0
  -22.8455    7.8610    0.2155 C   0  0  0  0  0  0  0  0  0  0  0  0
  -21.4987    8.1182    0.3123 C   0  0  0  0  0  0  0  0  0  0  0  0
  -20.7919    8.6484   -0.7508 C   0  0  0  0  0  0  0  0  0  0  0  0
  -21.4550    8.9180   -1.9154 C   0  0  0  0  0  0  0  0  0  0  0  0
  -24.0193    8.0245   -4.0888 C   0  0  0  0  0  0  0  0  0  0  0  0
  -23.8816    6.8126   -3.8733 O   0  0  0  0  0  0  0  0  0  0  0  0
  -25.3283    5.9775   -8.6068 N   0  0  0  0  0  0  0  0  0  0  0  0
  -25.8629    5.4736   -9.7186 C   0  0  0  0  0  0  0  0  0  0  0  0
  -28.9942    4.9127  -12.8118 C   0  0  0  0  0  0  0  0  0  0  0  0
  -28.9965    3.5718  -13.0549 C   0  0  0  0  0  0  0  0  0  0  0  0
  -29.6173    3.1107  -14.2022 C   0  0  0  0  0  0  0  0  0  0  0  0
  -29.6480    1.7839  -14.4917 O   0  0  0  0  0  0  0  0  0  0  0  0
  -29.0983    0.7713  -13.7290 C   0  0  0  0  0  0  0  0  0  0  0  0
  1  2  1  0
  2  3  1  0
  3  4  2  0
  4  5  1  0
  5  6  2  0
  6  7  1  0
  7  8  2  0
  8  9  1  0
  9 10  1  0
 10 11  1  0
 11 12  2  0
 12 13  1  0
 13 14  2  0
 14 15  1  0
 15 16  1  0
 16 17  2  0
 16 18  1  0
 18 19  2  0
 19 20  1  0
 20 21  2  0
 21 22  1  0
 22 23  2  0
 23 24  1  0
 24 25  2  0
 19 26  1  0
 26 27  1  0
 26 28  1  0
 28 29  1  0
 29 30  2  0
 30 31  1  0
 31 32  2  0
 32 33  1  0
 33 34  2  0
 28 35  1  0
 35 36  2  0
 14 37  1  0
 37 38  2  0
  9 39  2  0
 39 40  1  0
 40 41  2  0
 41 42  1  0
 42 43  1  0
 41  3  1  0
 39  5  1  0
 38 11  1  0
 35 18  1  0
 25 20  1  0
 34 29  1  0
M  END
>  <shape_align_shape_tanimoto>  (3) 
0.60215770163277038

>  <shape_align_color_tanimoto>  (3) 
0.075304275048324987

>  <metric>  (3) 
combo

>  <metric_score>  (3) 
0.339

>  <template_pid>  (3) 
4X7H

>  <template_shape_score>  (3) 
0.602

>  <template_color_score>  (3) 
0.075

>  <template_combo_score>  (3) 
0.339

$$$$
