1F73_shape_pose
     RDKit          3D

 21 20  0  0  0  0  0  0  0  0999 V2000
    8.9347   -0.9534    5.1809 C   0  0  0  0  0  0  0  0  0  0  0  0
   10.0628   -1.2995    6.0909 C   0  0  0  0  0  0  0  0  0  0  0  0
   10.2135   -0.5550    7.0916 O   0  0  0  0  0  0  0  0  0  0  0  0
   10.8878   -2.4145    5.7984 N   0  0  0  0  0  0  0  0  0  0  0  0
   11.9868   -2.9013    6.5231 C   0  0  1  0  0  0  0  0  0  0  0  0
   11.6992   -4.0786    7.4239 C   0  0  1  0  0  0  0  0  0  0  0  0
   12.9225   -4.4137    8.0198 O   0  0  0  0  0  0  0  0  0  0  0  0
   10.8401   -3.7182    8.6281 C   0  0  2  0  0  0  0  0  0  0  0  0
    9.5778   -3.3084    8.3630 O   0  0  0  0  0  0  0  0  0  0  0  0
   11.5421   -2.7200    9.5139 C   0  0  2  0  0  0  0  0  0  0  0  0
   12.8502   -3.1428    9.7860 O   0  0  0  0  0  0  0  0  0  0  0  0
   10.8211   -2.7641   10.8683 C   0  0  0  0  0  0  0  0  0  0  0  0
   11.4491   -1.9151   11.7792 O   0  0  0  0  0  0  0  0  0  0  0  0
   13.1356   -3.2350    5.6333 C   0  0  1  0  0  0  0  0  0  0  0  0
   12.7618   -4.1831    4.6447 O   0  0  0  0  0  0  0  0  0  0  0  0
   14.0200   -2.2096    5.0914 C   0  0  0  0  0  0  0  0  0  0  0  0
   13.5287   -1.1297    4.2212 C   0  0  1  0  0  0  0  0  0  0  0  0
   12.6021   -0.2605    4.7043 O   0  0  0  0  0  0  0  0  0  0  0  0
   14.7294   -0.2839    3.8455 C   0  0  0  0  0  0  0  0  0  0  0  0
   15.8040   -0.3550    4.4962 O   0  0  0  0  0  0  0  0  0  0  0  0
   14.6400    0.5942    2.7517 O   0  0  0  0  0  0  0  0  0  0  0  0
  1  2  1  0
  2  3  2  0
  2  4  1  0
  5  4  1  6
  5  6  1  0
  6  7  1  1
  6  8  1  0
  8  9  1  6
  8 10  1  0
 10 11  1  1
 10 12  1  0
 12 13  1  0
  5 14  1  0
 14 15  1  6
 14 16  1  0
 16 17  1  0
 17 18  1  1
 17 19  1  0
 19 20  2  0
 19 21  1  0
M  CHG  1  21  -1
M  END
>  <shape_align_shape_tanimoto>  (1) 
0.66350711882607882

>  <shape_align_color_tanimoto>  (1) 
0.06878898587957849

>  <metric>  (1) 
shape

>  <metric_score>  (1) 
0.664

>  <template_pid>  (1) 
1F73

>  <template_shape_score>  (1) 
0.664

>  <template_color_score>  (1) 
0.069

>  <template_combo_score>  (1) 
0.366

$$$$
1F73_color_pose
     RDKit          3D

 21 20  0  0  0  0  0  0  0  0999 V2000
    9.7354   -0.0035    6.8405 C   0  0  0  0  0  0  0  0  0  0  0  0
   10.0394   -1.4802    6.8337 C   0  0  0  0  0  0  0  0  0  0  0  0
    9.1192   -2.2823    6.5436 O   0  0  0  0  0  0  0  0  0  0  0  0
   11.3786   -1.9413    7.1604 N   0  0  0  0  0  0  0  0  0  0  0  0
   11.5886   -3.3507    7.1338 C   0  0  1  0  0  0  0  0  0  0  0  0
   12.8666   -3.7871    6.4491 C   0  0  1  0  0  0  0  0  0  0  0  0
   12.8884   -5.1874    6.5163 O   0  0  0  0  0  0  0  0  0  0  0  0
   12.8887   -3.4733    4.9686 C   0  0  2  0  0  0  0  0  0  0  0  0
   14.0832   -4.0678    4.4853 O   0  0  0  0  0  0  0  0  0  0  0  0
   13.0292   -2.0147    4.6518 C   0  0  2  0  0  0  0  0  0  0  0  0
   13.1718   -1.8533    3.2624 O   0  0  0  0  0  0  0  0  0  0  0  0
   14.3319   -1.4472    5.2322 C   0  0  0  0  0  0  0  0  0  0  0  0
   14.4888   -0.1179    4.8940 O   0  0  0  0  0  0  0  0  0  0  0  0
   11.2386   -4.0898    8.3497 C   0  0  1  0  0  0  0  0  0  0  0  0
   11.4658   -5.4838    8.0047 O   0  0  0  0  0  0  0  0  0  0  0  0
   11.7221   -3.8980    9.7048 C   0  0  0  0  0  0  0  0  0  0  0  0
   11.5551   -2.6163   10.4505 C   0  0  1  0  0  0  0  0  0  0  0  0
   12.0198   -2.8891   11.7827 O   0  0  0  0  0  0  0  0  0  0  0  0
   12.6304   -1.6304    9.9927 C   0  0  0  0  0  0  0  0  0  0  0  0
   12.5599   -0.4192   10.3262 O   0  0  0  0  0  0  0  0  0  0  0  0
   13.6981   -2.0279    9.2209 O   0  0  0  0  0  0  0  0  0  0  0  0
  1  2  1  0
  2  3  2  0
  2  4  1  0
  5  4  1  1
  5  6  1  0
  6  7  1  6
  6  8  1  0
  8  9  1  6
  8 10  1  0
 10 11  1  6
 10 12  1  0
 12 13  1  0
  5 14  1  0
 14 15  1  6
 14 16  1  0
 16 17  1  0
 17 18  1  1
 17 19  1  0
 19 20  2  0
 19 21  1  0
M  CHG  1  21  -1
M  END
>  <shape_align_shape_tanimoto>  (2) 
0.61022816167561833

>  <shape_align_color_tanimoto>  (2) 
0.13160355672277968

>  <metric>  (2) 
color

>  <metric_score>  (2) 
0.132

>  <template_pid>  (2) 
1F73

>  <template_shape_score>  (2) 
0.610

>  <template_color_score>  (2) 
0.132

>  <template_combo_score>  (2) 
0.371

$$$$
1F73_combo_pose
     RDKit          3D

 21 20  0  0  0  0  0  0  0  0999 V2000
   13.6734   -6.0131    6.7514 C   0  0  0  0  0  0  0  0  0  0  0  0
   13.3415   -4.5858    7.0276 C   0  0  0  0  0  0  0  0  0  0  0  0
   14.2793   -3.8593    7.4319 O   0  0  0  0  0  0  0  0  0  0  0  0
   12.0270   -4.0718    6.8422 N   0  0  0  0  0  0  0  0  0  0  0  0
   11.6595   -2.7001    7.0962 C   0  0  1  0  0  0  0  0  0  0  0  0
   11.1020   -2.0108    5.8837 C   0  0  1  0  0  0  0  0  0  0  0  0
   10.7556   -0.6742    6.1108 O   0  0  0  0  0  0  0  0  0  0  0  0
   11.9111   -2.1606    4.6279 C   0  0  2  0  0  0  0  0  0  0  0  0
   12.3033   -3.4804    4.4138 O   0  0  0  0  0  0  0  0  0  0  0  0
   12.9932   -1.1674    4.3958 C   0  0  2  0  0  0  0  0  0  0  0  0
   13.3461   -1.3296    3.0172 O   0  0  0  0  0  0  0  0  0  0  0  0
   14.2865   -1.4250    5.1331 C   0  0  0  0  0  0  0  0  0  0  0  0
   15.1977   -0.4583    4.6218 O   0  0  0  0  0  0  0  0  0  0  0  0
   10.6175   -2.5796    8.1822 C   0  0  1  0  0  0  0  0  0  0  0  0
    9.4392   -3.2506    7.8701 O   0  0  0  0  0  0  0  0  0  0  0  0
   11.0760   -3.0453    9.5182 C   0  0  0  0  0  0  0  0  0  0  0  0
   12.2467   -2.3531   10.1138 C   0  0  1  0  0  0  0  0  0  0  0  0
   12.0256   -0.9789   10.3034 O   0  0  0  0  0  0  0  0  0  0  0  0
   12.4040   -2.8871   11.5048 C   0  0  0  0  0  0  0  0  0  0  0  0
   11.5176   -3.5832   12.0653 O   0  0  0  0  0  0  0  0  0  0  0  0
   13.5856   -2.5801   12.1648 O   0  0  0  0  0  0  0  0  0  0  0  0
  1  2  1  0
  2  3  2  0
  2  4  1  0
  5  4  1  6
  5  6  1  0
  6  7  1  1
  6  8  1  0
  8  9  1  1
  8 10  1  0
 10 11  1  6
 10 12  1  0
 12 13  1  0
  5 14  1  0
 14 15  1  6
 14 16  1  0
 16 17  1  0
 17 18  1  1
 17 19  1  0
 19 20  2  0
 19 21  1  0
M  CHG  1  21  -1
M  END
>  <shape_align_shape_tanimoto>  (3) 
0.65757988711242543

>  <shape_align_color_tanimoto>  (3) 
0.097980375819570531

>  <metric>  (3) 
combo

>  <metric_score>  (3) 
0.378

>  <template_pid>  (3) 
1F73

>  <template_shape_score>  (3) 
0.658

>  <template_color_score>  (3) 
0.098

>  <template_combo_score>  (3) 
0.378

$$$$
