5D6P_shape_pose
     RDKit          3D

 18 19  0  0  0  0  0  0  0  0999 V2000
   -7.4889   -8.1550  -19.9385 C   0  0  0  0  0  0  0  0  0  0  0  0
   -8.0460   -9.3645  -19.2472 C   0  0  0  0  0  0  0  0  0  0  0  0
   -9.3374   -9.1544  -18.6285 N   0  0  0  0  0  0  0  0  0  0  0  0
   -9.4175   -8.1521  -17.6184 C   0  0  0  0  0  0  0  0  0  0  0  0
   -8.3766   -7.5267  -17.3380 O   0  0  0  0  0  0  0  0  0  0  0  0
  -10.6348   -7.9006  -16.9814 N   0  0  0  0  0  0  0  0  0  0  0  0
  -10.5986   -6.8441  -15.9587 C   0  0  0  0  0  0  0  0  0  0  0  0
   -9.7935   -6.1078  -15.4971 N   0  0  0  0  0  0  0  0  0  0  0  0
   -9.9712   -5.2043  -14.5537 C   0  0  0  0  0  0  0  0  0  0  0  0
   -8.8445   -4.3321  -14.0522 C   0  0  0  0  0  0  0  0  0  0  0  0
   -8.9588   -3.0363  -14.5468 O   0  0  0  0  0  0  0  0  0  0  0  0
  -11.2355   -5.1267  -14.0690 C   0  0  0  0  0  0  0  0  0  0  0  0
  -11.8923   -4.3066  -13.0668 C   0  0  0  0  0  0  0  0  0  0  0  0
  -11.4296   -3.2929  -12.2817 C   0  0  0  0  0  0  0  0  0  0  0  0
  -12.4425   -2.7989  -11.4673 C   0  0  0  0  0  0  0  0  0  0  0  0
  -13.5464   -3.5566  -11.7900 C   0  0  0  0  0  0  0  0  0  0  0  0
  -13.2038   -4.4417  -12.7357 N   0  0  0  0  0  0  0  0  0  0  0  0
  -12.1174   -6.4045  -15.0366 S   0  0  0  0  0  0  0  0  0  0  0  0
  1  2  1  0
  2  3  1  0
  3  4  1  0
  4  5  2  0
  4  6  1  0
  6  7  1  0
  7  8  2  0
  8  9  1  0
  9 10  1  0
 10 11  1  0
  9 12  2  0
 12 13  1  0
 13 14  2  0
 14 15  1  0
 15 16  2  0
 16 17  1  0
 12 18  1  0
 18  7  1  0
 17 13  1  0
M  END
>  <shape_align_shape_tanimoto>  (1) 
0.63589617482387428

>  <shape_align_color_tanimoto>  (1) 
0.037420449471919914

>  <metric>  (1) 
shape

>  <metric_score>  (1) 
0.636

>  <template_pid>  (1) 
5D6P

>  <template_shape_score>  (1) 
0.636

>  <template_color_score>  (1) 
0.037

>  <template_combo_score>  (1) 
0.337

$$$$
5D6P_color_pose
     RDKit          3D

 18 19  0  0  0  0  0  0  0  0999 V2000
  -10.5004   -9.7917  -19.2564 C   0  0  0  0  0  0  0  0  0  0  0  0
   -8.9823   -9.5740  -19.3456 C   0  0  0  0  0  0  0  0  0  0  0  0
   -8.4743   -9.0667  -18.1153 N   0  0  0  0  0  0  0  0  0  0  0  0
   -8.8545   -7.8202  -17.5295 C   0  0  0  0  0  0  0  0  0  0  0  0
   -9.6741   -7.0431  -18.1024 O   0  0  0  0  0  0  0  0  0  0  0  0
   -8.2664   -7.5131  -16.2785 N   0  0  0  0  0  0  0  0  0  0  0  0
   -8.5691   -6.2706  -15.5649 C   0  0  0  0  0  0  0  0  0  0  0  0
   -8.3583   -5.2299  -15.2248 N   0  0  0  0  0  0  0  0  0  0  0  0
   -9.0586   -4.3562  -14.5088 C   0  0  0  0  0  0  0  0  0  0  0  0
   -8.5654   -2.9858  -14.1982 C   0  0  0  0  0  0  0  0  0  0  0  0
   -7.7638   -2.4383  -15.1973 O   0  0  0  0  0  0  0  0  0  0  0  0
  -10.2887   -4.8619  -14.1232 C   0  0  0  0  0  0  0  0  0  0  0  0
  -11.3547   -4.3128  -13.3004 C   0  0  0  0  0  0  0  0  0  0  0  0
  -12.6385   -4.8725  -13.2903 C   0  0  0  0  0  0  0  0  0  0  0  0
  -13.4491   -4.1170  -12.4722 C   0  0  0  0  0  0  0  0  0  0  0  0
  -12.6605   -3.0966  -11.9845 C   0  0  0  0  0  0  0  0  0  0  0  0
  -11.4172   -3.2634  -12.5111 N   0  0  0  0  0  0  0  0  0  0  0  0
  -10.3223   -6.5375  -14.8258 S   0  0  0  0  0  0  0  0  0  0  0  0
  1  2  1  0
  2  3  1  0
  3  4  1  0
  4  5  2  0
  4  6  1  0
  6  7  1  0
  7  8  2  0
  8  9  1  0
  9 10  1  0
 10 11  1  0
  9 12  2  0
 12 13  1  0
 13 14  2  0
 14 15  1  0
 15 16  2  0
 16 17  1  0
 12 18  1  0
 18  7  1  0
 17 13  1  0
M  END
>  <shape_align_shape_tanimoto>  (2) 
0.51877317322103511

>  <shape_align_color_tanimoto>  (2) 
0.11155532442375216

>  <metric>  (2) 
color

>  <metric_score>  (2) 
0.112

>  <template_pid>  (2) 
5D6P

>  <template_shape_score>  (2) 
0.519

>  <template_color_score>  (2) 
0.112

>  <template_combo_score>  (2) 
0.315

$$$$
5D6P_combo_pose
     RDKit          3D

 18 19  0  0  0  0  0  0  0  0999 V2000
   -7.4889   -8.1550  -19.9385 C   0  0  0  0  0  0  0  0  0  0  0  0
   -8.0460   -9.3645  -19.2472 C   0  0  0  0  0  0  0  0  0  0  0  0
   -9.3374   -9.1544  -18.6285 N   0  0  0  0  0  0  0  0  0  0  0  0
   -9.4175   -8.1521  -17.6184 C   0  0  0  0  0  0  0  0  0  0  0  0
   -8.3766   -7.5267  -17.3380 O   0  0  0  0  0  0  0  0  0  0  0  0
  -10.6348   -7.9006  -16.9814 N   0  0  0  0  0  0  0  0  0  0  0  0
  -10.5986   -6.8441  -15.9587 C   0  0  0  0  0  0  0  0  0  0  0  0
   -9.7935   -6.1078  -15.4971 N   0  0  0  0  0  0  0  0  0  0  0  0
   -9.9712   -5.2043  -14.5537 C   0  0  0  0  0  0  0  0  0  0  0  0
   -8.8445   -4.3321  -14.0522 C   0  0  0  0  0  0  0  0  0  0  0  0
   -8.9588   -3.0363  -14.5468 O   0  0  0  0  0  0  0  0  0  0  0  0
  -11.2355   -5.1267  -14.0690 C   0  0  0  0  0  0  0  0  0  0  0  0
  -11.8923   -4.3066  -13.0668 C   0  0  0  0  0  0  0  0  0  0  0  0
  -11.4296   -3.2929  -12.2817 C   0  0  0  0  0  0  0  0  0  0  0  0
  -12.4425   -2.7989  -11.4673 C   0  0  0  0  0  0  0  0  0  0  0  0
  -13.5464   -3.5566  -11.7900 C   0  0  0  0  0  0  0  0  0  0  0  0
  -13.2038   -4.4417  -12.7357 N   0  0  0  0  0  0  0  0  0  0  0  0
  -12.1174   -6.4045  -15.0366 S   0  0  0  0  0  0  0  0  0  0  0  0
  1  2  1  0
  2  3  1  0
  3  4  1  0
  4  5  2  0
  4  6  1  0
  6  7  1  0
  7  8  2  0
  8  9  1  0
  9 10  1  0
 10 11  1  0
  9 12  2  0
 12 13  1  0
 13 14  2  0
 14 15  1  0
 15 16  2  0
 16 17  1  0
 12 18  1  0
 18  7  1  0
 17 13  1  0
M  END
>  <shape_align_shape_tanimoto>  (3) 
0.63589617482387428

>  <shape_align_color_tanimoto>  (3) 
0.037420449471919914

>  <metric>  (3) 
combo

>  <metric_score>  (3) 
0.337

>  <template_pid>  (3) 
5D6P

>  <template_shape_score>  (3) 
0.636

>  <template_color_score>  (3) 
0.037

>  <template_combo_score>  (3) 
0.337

$$$$
