2A4R_shape_pose
     RDKit          3D

 50 53  0  0  0  0  0  0  0  0999 V2000
    5.2820    9.1667   51.9937 C   0  0  0  0  0  0  0  0  0  0  0  0
    6.5741    8.9046   52.7127 C   0  0  0  0  0  0  0  0  0  0  0  0
    6.9419   10.0807   53.6159 C   0  0  0  0  0  0  0  0  0  0  0  0
    7.6970    8.6092   51.7478 C   0  0  0  0  0  0  0  0  0  0  0  0
    7.3515    7.4829   50.9885 O   0  0  0  0  0  0  0  0  0  0  0  0
    7.0771    6.2099   51.4076 C   0  0  0  0  0  0  0  0  0  0  0  0
    7.1265    5.9643   52.6404 O   0  0  0  0  0  0  0  0  0  0  0  0
    6.7514    5.2402   50.4224 N   0  0  0  0  0  0  0  0  0  0  0  0
    6.4314    3.8645   50.6810 C   0  0  2  0  0  0  0  0  0  0  0  0
    7.5894    3.0278   50.2157 C   0  0  0  0  0  0  0  0  0  0  0  0
    8.6686    3.6147   49.9442 O   0  0  0  0  0  0  0  0  0  0  0  0
    7.5360    1.6362   50.0650 N   0  0  0  0  0  0  0  0  0  0  0  0
    8.7021    0.9023   49.6304 C   0  0  1  0  0  0  0  0  0  0  0  0
    8.9231   -0.4081   50.2813 C   0  0  0  0  0  0  0  0  0  0  0  0
    7.7641   -1.3351   50.0290 C   0  0  0  0  0  0  0  0  0  0  0  0
    7.8542   -2.6914   50.6258 C   0  0  0  0  0  0  0  0  0  0  0  0
    6.8745   -1.7511   51.2108 C   0  0  0  0  0  0  0  0  0  0  0  0
    8.7408    0.8541   48.1190 C   0  0  0  0  0  0  0  0  0  0  0  0
    7.9246    1.4708   47.4036 O   0  0  0  0  0  0  0  0  0  0  0  0
    9.7580    0.0736   47.5333 N   0  0  0  0  0  0  0  0  0  0  0  0
    9.9270   -0.0249   46.0658 C   0  0  1  0  0  0  0  0  0  0  0  0
   11.2966    0.4771   45.7710 C   0  0  0  0  0  0  0  0  0  0  0  0
   11.7917    0.4939   44.3808 C   0  0  0  0  0  0  0  0  0  0  0  0
   11.9707   -0.7146   43.5732 C   0  0  0  0  0  0  0  0  0  0  0  0
   13.1889    0.0428   44.0133 C   0  0  0  0  0  0  0  0  0  0  0  0
    9.4833   -1.2923   45.4776 C   0  0  1  0  0  0  0  0  0  0  0  0
   10.0836   -2.4369   45.9543 O   0  0  0  0  0  0  0  0  0  0  0  0
    7.9812   -1.4611   45.3966 C   0  0  0  0  0  0  0  0  0  0  0  0
    7.4425   -2.5203   45.8130 O   0  0  0  0  0  0  0  0  0  0  0  0
    7.1490   -0.4484   44.8484 N   0  0  0  0  0  0  0  0  0  0  0  0
    5.7340   -0.5311   44.7024 C   0  0  0  0  0  0  0  0  0  0  0  0
    4.9350   -0.7339   45.9102 C   0  0  0  0  0  0  0  0  0  0  0  0
    5.4127   -0.8434   47.0809 O   0  0  0  0  0  0  0  0  0  0  0  0
    3.5049   -0.8104   45.7127 N   0  0  0  0  0  0  0  0  0  0  0  0
    2.5590   -1.0157   46.7548 C   0  0  2  0  0  0  0  0  0  0  0  0
    1.9275   -2.3849   46.5994 C   0  0  0  0  0  0  0  0  0  0  0  0
    2.0005   -3.0018   45.4971 O   0  0  0  0  0  0  0  0  0  0  0  0
    1.2862   -2.8958   47.7139 O   0  0  0  0  0  0  0  0  0  0  0  0
    1.4682   -0.0036   46.8028 C   0  0  0  0  0  0  0  0  0  0  0  0
    0.8363    0.4044   45.6214 C   0  0  0  0  0  0  0  0  0  0  0  0
   -0.1903    1.3214   45.6204 C   0  0  0  0  0  0  0  0  0  0  0  0
   -0.5962    1.8437   46.8243 C   0  0  0  0  0  0  0  0  0  0  0  0
   -0.0055    1.4776   48.0394 C   0  0  0  0  0  0  0  0  0  0  0  0
    1.0234    0.5512   47.9867 C   0  0  0  0  0  0  0  0  0  0  0  0
    5.1087    3.3922   50.1607 C   0  0  0  0  0  0  0  0  0  0  0  0
    5.0384    3.5309   48.6715 C   0  0  0  0  0  0  0  0  0  0  0  0
    3.6422    3.3337   48.1358 C   0  0  0  0  0  0  0  0  0  0  0  0
    2.5710    4.0239   48.9019 C   0  0  0  0  0  0  0  0  0  0  0  0
    3.2280    5.0000   49.8512 C   0  0  0  0  0  0  0  0  0  0  0  0
    4.0056    4.1629   50.8552 C   0  0  0  0  0  0  0  0  0  0  0  0
  1  2  1  0
  2  3  1  0
  2  4  1  0
  4  5  1  0
  5  6  1  0
  6  7  2  0
  6  8  1  0
  9  8  1  6
  9 10  1  0
 10 11  2  0
 10 12  1  0
 12 13  1  0
 13 14  1  1
 14 15  1  0
 15 16  1  0
 16 17  1  0
 13 18  1  0
 18 19  2  0
 18 20  1  0
 20 21  1  0
 21 22  1  1
 22 23  1  0
 23 24  1  0
 24 25  1  0
 21 26  1  0
 26 27  1  1
 26 28  1  0
 28 29  2  0
 28 30  1  0
 30 31  1  0
 31 32  1  0
 32 33  2  0
 32 34  1  0
 35 34  1  6
 35 36  1  0
 36 37  2  0
 36 38  1  0
 35 39  1  0
 39 40  2  0
 40 41  1  0
 41 42  2  0
 42 43  1  0
 43 44  2  0
  9 45  1  0
 45 46  1  0
 46 47  1  0
 47 48  1  0
 48 49  1  0
 49 50  1  0
 17 15  1  0
 25 23  1  0
 44 39  1  0
 50 45  1  0
M  CHG  1  38  -1
M  END
>  <shape_align_shape_tanimoto>  (1) 
0.52020619566253568

>  <shape_align_color_tanimoto>  (1) 
0.033971329221067992

>  <metric>  (1) 
shape

>  <metric_score>  (1) 
0.520

>  <template_pid>  (1) 
2A4R

>  <template_shape_score>  (1) 
0.520

>  <template_color_score>  (1) 
0.034

>  <template_combo_score>  (1) 
0.277

$$$$
2A4R_color_pose
     RDKit          3D

 50 53  0  0  0  0  0  0  0  0999 V2000
    9.1662    8.2507   51.9759 C   0  0  0  0  0  0  0  0  0  0  0  0
    7.9788    8.7931   52.7273 C   0  0  0  0  0  0  0  0  0  0  0  0
    7.9872    8.2780   54.1646 C   0  0  0  0  0  0  0  0  0  0  0  0
    6.6668    8.6565   52.0472 C   0  0  0  0  0  0  0  0  0  0  0  0
    6.1673    7.4174   51.7665 O   0  0  0  0  0  0  0  0  0  0  0  0
    6.5269    6.3359   51.0680 C   0  0  0  0  0  0  0  0  0  0  0  0
    7.5897    6.2621   50.4357 O   0  0  0  0  0  0  0  0  0  0  0  0
    5.6354    5.2005   51.0533 N   0  0  0  0  0  0  0  0  0  0  0  0
    6.0799    3.9917   50.2783 C   0  0  2  0  0  0  0  0  0  0  0  0
    5.1936    3.9487   49.1301 C   0  0  0  0  0  0  0  0  0  0  0  0
    4.1710    4.7180   49.1413 O   0  0  0  0  0  0  0  0  0  0  0  0
    5.3249    3.1512   47.9593 N   0  0  0  0  0  0  0  0  0  0  0  0
    4.3557    3.2599   46.8401 C   0  0  1  0  0  0  0  0  0  0  0  0
    4.9300    4.2388   45.8419 C   0  0  0  0  0  0  0  0  0  0  0  0
    4.0305    4.5161   44.6685 C   0  0  0  0  0  0  0  0  0  0  0  0
    4.4617    5.4635   43.6005 C   0  0  0  0  0  0  0  0  0  0  0  0
    3.3648    5.8643   44.5982 C   0  0  0  0  0  0  0  0  0  0  0  0
    4.0579    1.9206   46.2765 C   0  0  0  0  0  0  0  0  0  0  0  0
    3.5649    1.7121   45.1492 O   0  0  0  0  0  0  0  0  0  0  0  0
    4.3478    0.7846   47.0694 N   0  0  0  0  0  0  0  0  0  0  0  0
    4.2251   -0.5866   46.8099 C   0  0  1  0  0  0  0  0  0  0  0  0
    3.4741   -1.3846   47.8219 C   0  0  0  0  0  0  0  0  0  0  0  0
    2.0789   -1.0826   48.1569 C   0  0  0  0  0  0  0  0  0  0  0  0
    1.5741    0.1794   48.7170 C   0  0  0  0  0  0  0  0  0  0  0  0
    1.1020   -0.3573   47.3471 C   0  0  0  0  0  0  0  0  0  0  0  0
    4.0765   -1.1127   45.4275 C   0  0  1  0  0  0  0  0  0  0  0  0
    2.9809   -0.7770   44.6881 O   0  0  0  0  0  0  0  0  0  0  0  0
    5.3390   -0.9989   44.6091 C   0  0  0  0  0  0  0  0  0  0  0  0
    5.1690   -0.7645   43.3575 O   0  0  0  0  0  0  0  0  0  0  0  0
    6.6409   -1.1283   45.1419 N   0  0  0  0  0  0  0  0  0  0  0  0
    7.7924   -0.9889   44.2388 C   0  0  0  0  0  0  0  0  0  0  0  0
    9.0113   -1.0394   45.0612 C   0  0  0  0  0  0  0  0  0  0  0  0
    8.8705   -1.2032   46.3094 O   0  0  0  0  0  0  0  0  0  0  0  0
   10.3401   -0.9085   44.5500 N   0  0  0  0  0  0  0  0  0  0  0  0
   11.4171   -0.9532   45.5091 C   0  0  2  0  0  0  0  0  0  0  0  0
   12.2818    0.2677   45.3860 C   0  0  0  0  0  0  0  0  0  0  0  0
   12.2624    0.9708   44.3464 O   0  0  0  0  0  0  0  0  0  0  0  0
   13.0829    0.5417   46.4932 O   0  0  0  0  0  0  0  0  0  0  0  0
   12.2795   -2.1509   45.4098 C   0  0  0  0  0  0  0  0  0  0  0  0
   12.7119   -2.6300   44.1890 C   0  0  0  0  0  0  0  0  0  0  0  0
   13.5393   -3.7726   44.1170 C   0  0  0  0  0  0  0  0  0  0  0  0
   13.8917   -4.3807   45.2787 C   0  0  0  0  0  0  0  0  0  0  0  0
   13.4682   -3.9135   46.4953 C   0  0  0  0  0  0  0  0  0  0  0  0
   12.6635   -2.8033   46.5918 C   0  0  0  0  0  0  0  0  0  0  0  0
    6.0269    2.8250   51.1757 C   0  0  0  0  0  0  0  0  0  0  0  0
    6.4514    1.5465   50.5169 C   0  0  0  0  0  0  0  0  0  0  0  0
    6.8995    0.5411   51.5983 C   0  0  0  0  0  0  0  0  0  0  0  0
    5.9751    0.6866   52.7983 C   0  0  0  0  0  0  0  0  0  0  0  0
    4.6233    1.1131   52.3178 C   0  0  0  0  0  0  0  0  0  0  0  0
    4.6712    2.5588   51.8161 C   0  0  0  0  0  0  0  0  0  0  0  0
  1  2  1  0
  2  3  1  0
  2  4  1  0
  4  5  1  0
  5  6  1  0
  6  7  2  0
  6  8  1  0
  9  8  1  1
  9 10  1  0
 10 11  2  0
 10 12  1  0
 12 13  1  0
 13 14  1  6
 14 15  1  0
 15 16  1  0
 16 17  1  0
 13 18  1  0
 18 19  2  0
 18 20  1  0
 20 21  1  0
 21 22  1  1
 22 23  1  0
 23 24  1  0
 24 25  1  0
 21 26  1  0
 26 27  1  6
 26 28  1  0
 28 29  2  0
 28 30  1  0
 30 31  1  0
 31 32  1  0
 32 33  2  0
 32 34  1  0
 35 34  1  6
 35 36  1  0
 36 37  2  0
 36 38  1  0
 35 39  1  0
 39 40  2  0
 40 41  1  0
 41 42  2  0
 42 43  1  0
 43 44  2  0
  9 45  1  0
 45 46  1  0
 46 47  1  0
 47 48  1  0
 48 49  1  0
 49 50  1  0
 17 15  1  0
 25 23  1  0
 44 39  1  0
 50 45  1  0
M  CHG  1  38  -1
M  END
>  <shape_align_shape_tanimoto>  (2) 
0.41835000241952242

>  <shape_align_color_tanimoto>  (2) 
0.08774779922064059

>  <metric>  (2) 
color

>  <metric_score>  (2) 
0.088

>  <template_pid>  (2) 
2A4R

>  <template_shape_score>  (2) 
0.418

>  <template_color_score>  (2) 
0.088

>  <template_combo_score>  (2) 
0.253

$$$$
2A4R_combo_pose
     RDKit          3D

 50 53  0  0  0  0  0  0  0  0999 V2000
    5.2820    9.1667   51.9937 C   0  0  0  0  0  0  0  0  0  0  0  0
    6.5741    8.9046   52.7127 C   0  0  0  0  0  0  0  0  0  0  0  0
    6.9419   10.0807   53.6159 C   0  0  0  0  0  0  0  0  0  0  0  0
    7.6970    8.6092   51.7478 C   0  0  0  0  0  0  0  0  0  0  0  0
    7.3515    7.4829   50.9885 O   0  0  0  0  0  0  0  0  0  0  0  0
    7.0771    6.2099   51.4076 C   0  0  0  0  0  0  0  0  0  0  0  0
    7.1265    5.9643   52.6404 O   0  0  0  0  0  0  0  0  0  0  0  0
    6.7514    5.2402   50.4224 N   0  0  0  0  0  0  0  0  0  0  0  0
    6.4314    3.8645   50.6810 C   0  0  2  0  0  0  0  0  0  0  0  0
    7.5894    3.0278   50.2157 C   0  0  0  0  0  0  0  0  0  0  0  0
    8.6686    3.6147   49.9442 O   0  0  0  0  0  0  0  0  0  0  0  0
    7.5360    1.6362   50.0650 N   0  0  0  0  0  0  0  0  0  0  0  0
    8.7021    0.9023   49.6304 C   0  0  1  0  0  0  0  0  0  0  0  0
    8.9231   -0.4081   50.2813 C   0  0  0  0  0  0  0  0  0  0  0  0
    7.7641   -1.3351   50.0290 C   0  0  0  0  0  0  0  0  0  0  0  0
    7.8542   -2.6914   50.6258 C   0  0  0  0  0  0  0  0  0  0  0  0
    6.8745   -1.7511   51.2108 C   0  0  0  0  0  0  0  0  0  0  0  0
    8.7408    0.8541   48.1190 C   0  0  0  0  0  0  0  0  0  0  0  0
    7.9246    1.4708   47.4036 O   0  0  0  0  0  0  0  0  0  0  0  0
    9.7580    0.0736   47.5333 N   0  0  0  0  0  0  0  0  0  0  0  0
    9.9270   -0.0249   46.0658 C   0  0  1  0  0  0  0  0  0  0  0  0
   11.2966    0.4771   45.7710 C   0  0  0  0  0  0  0  0  0  0  0  0
   11.7917    0.4939   44.3808 C   0  0  0  0  0  0  0  0  0  0  0  0
   11.9707   -0.7146   43.5732 C   0  0  0  0  0  0  0  0  0  0  0  0
   13.1889    0.0428   44.0133 C   0  0  0  0  0  0  0  0  0  0  0  0
    9.4833   -1.2923   45.4776 C   0  0  1  0  0  0  0  0  0  0  0  0
   10.0836   -2.4369   45.9543 O   0  0  0  0  0  0  0  0  0  0  0  0
    7.9812   -1.4611   45.3966 C   0  0  0  0  0  0  0  0  0  0  0  0
    7.4425   -2.5203   45.8130 O   0  0  0  0  0  0  0  0  0  0  0  0
    7.1490   -0.4484   44.8484 N   0  0  0  0  0  0  0  0  0  0  0  0
    5.7340   -0.5311   44.7024 C   0  0  0  0  0  0  0  0  0  0  0  0
    4.9350   -0.7339   45.9102 C   0  0  0  0  0  0  0  0  0  0  0  0
    5.4127   -0.8434   47.0809 O   0  0  0  0  0  0  0  0  0  0  0  0
    3.5049   -0.8104   45.7127 N   0  0  0  0  0  0  0  0  0  0  0  0
    2.5590   -1.0157   46.7548 C   0  0  2  0  0  0  0  0  0  0  0  0
    1.9275   -2.3849   46.5994 C   0  0  0  0  0  0  0  0  0  0  0  0
    2.0005   -3.0018   45.4971 O   0  0  0  0  0  0  0  0  0  0  0  0
    1.2862   -2.8958   47.7139 O   0  0  0  0  0  0  0  0  0  0  0  0
    1.4682   -0.0036   46.8028 C   0  0  0  0  0  0  0  0  0  0  0  0
    0.8363    0.4044   45.6214 C   0  0  0  0  0  0  0  0  0  0  0  0
   -0.1903    1.3214   45.6204 C   0  0  0  0  0  0  0  0  0  0  0  0
   -0.5962    1.8437   46.8243 C   0  0  0  0  0  0  0  0  0  0  0  0
   -0.0055    1.4776   48.0394 C   0  0  0  0  0  0  0  0  0  0  0  0
    1.0234    0.5512   47.9867 C   0  0  0  0  0  0  0  0  0  0  0  0
    5.1087    3.3922   50.1607 C   0  0  0  0  0  0  0  0  0  0  0  0
    5.0384    3.5309   48.6715 C   0  0  0  0  0  0  0  0  0  0  0  0
    3.6422    3.3337   48.1358 C   0  0  0  0  0  0  0  0  0  0  0  0
    2.5710    4.0239   48.9019 C   0  0  0  0  0  0  0  0  0  0  0  0
    3.2280    5.0000   49.8512 C   0  0  0  0  0  0  0  0  0  0  0  0
    4.0056    4.1629   50.8552 C   0  0  0  0  0  0  0  0  0  0  0  0
  1  2  1  0
  2  3  1  0
  2  4  1  0
  4  5  1  0
  5  6  1  0
  6  7  2  0
  6  8  1  0
  9  8  1  6
  9 10  1  0
 10 11  2  0
 10 12  1  0
 12 13  1  0
 13 14  1  1
 14 15  1  0
 15 16  1  0
 16 17  1  0
 13 18  1  0
 18 19  2  0
 18 20  1  0
 20 21  1  0
 21 22  1  1
 22 23  1  0
 23 24  1  0
 24 25  1  0
 21 26  1  0
 26 27  1  1
 26 28  1  0
 28 29  2  0
 28 30  1  0
 30 31  1  0
 31 32  1  0
 32 33  2  0
 32 34  1  0
 35 34  1  6
 35 36  1  0
 36 37  2  0
 36 38  1  0
 35 39  1  0
 39 40  2  0
 40 41  1  0
 41 42  2  0
 42 43  1  0
 43 44  2  0
  9 45  1  0
 45 46  1  0
 46 47  1  0
 47 48  1  0
 48 49  1  0
 49 50  1  0
 17 15  1  0
 25 23  1  0
 44 39  1  0
 50 45  1  0
M  CHG  1  38  -1
M  END
>  <shape_align_shape_tanimoto>  (3) 
0.52020619566253568

>  <shape_align_color_tanimoto>  (3) 
0.033971329221067992

>  <metric>  (3) 
combo

>  <metric_score>  (3) 
0.277

>  <template_pid>  (3) 
2A4R

>  <template_shape_score>  (3) 
0.520

>  <template_color_score>  (3) 
0.034

>  <template_combo_score>  (3) 
0.277

$$$$
