4DE0_shape_pose
     RDKit          3D

 23 26  0  0  0  0  0  0  0  0999 V2000
  -32.9133   93.0372   19.5820 O   0  0  0  0  0  0  0  0  0  0  0  0
  -33.6465   92.5504   18.6870 C   0  0  0  0  0  0  0  0  0  0  0  0
  -33.0490   91.9752   17.5378 N   0  0  0  0  0  0  0  0  0  0  0  0
  -31.6261   91.9371   17.3638 C   0  0  0  0  0  0  0  0  0  0  0  0
  -31.0269   92.3482   16.1900 C   0  0  0  0  0  0  0  0  0  0  0  0
  -29.6273   92.2820   16.1218 C   0  0  0  0  0  0  0  0  0  0  0  0
  -28.8894   91.8124   17.2171 C   0  0  0  0  0  0  0  0  0  0  0  0
  -29.5246   91.4047   18.3879 C   0  0  0  0  0  0  0  0  0  0  0  0
  -28.8010   90.9147   19.5479 C   0  0  0  0  0  0  0  0  0  0  0  0
  -27.5953   91.2328   20.0381 N   0  0  0  0  0  0  0  0  0  0  0  0
  -27.3820   90.4875   21.1388 N   0  0  0  0  0  0  0  0  0  0  0  0
  -28.4481   89.7013   21.3452 N   0  0  0  0  0  0  0  0  0  0  0  0
  -29.3192   89.9611   20.3722 N   0  0  0  0  0  0  0  0  0  0  0  0
  -30.9151   91.4706   18.4555 C   0  0  0  0  0  0  0  0  0  0  0  0
  -35.0865   92.6127   18.9010 C   0  0  0  0  0  0  0  0  0  0  0  0
  -35.8876   92.6479   17.7951 C   0  0  0  0  0  0  0  0  0  0  0  0
  -37.2658   92.7256   18.0227 C   0  0  0  0  0  0  0  0  0  0  0  0
  -37.7584   92.7637   19.3237 C   0  0  0  0  0  0  0  0  0  0  0  0
  -36.9092   92.7253   20.4169 C   0  0  0  0  0  0  0  0  0  0  0  0
  -37.1160   92.7458   21.7556 N   0  0  0  0  0  0  0  0  0  0  0  0
  -35.9096   92.6835   22.3661 C   0  0  0  0  0  0  0  0  0  0  0  0
  -34.9579   92.6241   21.4196 N   0  0  0  0  0  0  0  0  0  0  0  0
  -35.5266   92.6468   20.2023 C   0  0  0  0  0  0  0  0  0  0  0  0
  1  2  2  0
  2  3  1  0
  3  4  1  0
  4  5  2  0
  5  6  1  0
  6  7  2  0
  7  8  1  0
  8  9  1  0
  9 10  1  0
 10 11  2  0
 11 12  1  0
 12 13  1  0
  8 14  2  0
  2 15  1  0
 15 16  2  0
 16 17  1  0
 17 18  2  0
 18 19  1  0
 19 20  1  0
 20 21  2  0
 21 22  1  0
 22 23  1  0
 14  4  1  0
 23 15  1  0
 13  9  2  0
 23 19  2  0
M  END
>  <shape_align_shape_tanimoto>  (1) 
0.79590705446279741

>  <shape_align_color_tanimoto>  (1) 
0.15722758040461252

>  <metric>  (1) 
shape

>  <metric_score>  (1) 
0.796

>  <template_pid>  (1) 
4DE0

>  <template_shape_score>  (1) 
0.796

>  <template_color_score>  (1) 
0.157

>  <template_combo_score>  (1) 
0.477

$$$$
4DE0_color_pose
     RDKit          3D

 23 26  0  0  0  0  0  0  0  0999 V2000
  -33.0399   92.4370   19.7545 O   0  0  0  0  0  0  0  0  0  0  0  0
  -33.8610   92.1934   18.7851 C   0  0  0  0  0  0  0  0  0  0  0  0
  -33.2992   91.8999   17.5269 N   0  0  0  0  0  0  0  0  0  0  0  0
  -31.8508   91.9066   17.4724 C   0  0  0  0  0  0  0  0  0  0  0  0
  -31.1878   92.5416   16.4122 C   0  0  0  0  0  0  0  0  0  0  0  0
  -29.7936   92.5760   16.3658 C   0  0  0  0  0  0  0  0  0  0  0  0
  -29.0442   91.9869   17.3606 C   0  0  0  0  0  0  0  0  0  0  0  0
  -29.6991   91.3510   18.4211 C   0  0  0  0  0  0  0  0  0  0  0  0
  -28.9086   90.7578   19.4841 C   0  0  0  0  0  0  0  0  0  0  0  0
  -28.2062   91.5115   20.3883 N   0  0  0  0  0  0  0  0  0  0  0  0
  -27.5900   90.7308   21.2421 N   0  0  0  0  0  0  0  0  0  0  0  0
  -27.8791   89.4851   20.9119 N   0  0  0  0  0  0  0  0  0  0  0  0
  -28.6862   89.4808   19.8360 N   0  0  0  0  0  0  0  0  0  0  0  0
  -31.1040   91.3145   18.4698 C   0  0  0  0  0  0  0  0  0  0  0  0
  -35.2520   92.2595   19.1396 C   0  0  0  0  0  0  0  0  0  0  0  0
  -36.2311   91.3818   18.7184 C   0  0  0  0  0  0  0  0  0  0  0  0
  -37.5269   91.5765   19.1653 C   0  0  0  0  0  0  0  0  0  0  0  0
  -37.8594   92.6288   20.0202 C   0  0  0  0  0  0  0  0  0  0  0  0
  -36.8816   93.5106   20.4439 C   0  0  0  0  0  0  0  0  0  0  0  0
  -36.9258   94.5793   21.2489 N   0  0  0  0  0  0  0  0  0  0  0  0
  -35.6743   95.0803   21.3275 C   0  0  0  0  0  0  0  0  0  0  0  0
  -34.8484   94.3065   20.5604 N   0  0  0  0  0  0  0  0  0  0  0  0
  -35.6048   93.3197   20.0047 C   0  0  0  0  0  0  0  0  0  0  0  0
  1  2  2  0
  2  3  1  0
  3  4  1  0
  4  5  2  0
  5  6  1  0
  6  7  2  0
  7  8  1  0
  8  9  1  0
  9 10  1  0
 10 11  2  0
 11 12  1  0
 12 13  1  0
  8 14  2  0
  2 15  1  0
 15 16  2  0
 16 17  1  0
 17 18  2  0
 18 19  1  0
 19 20  1  0
 20 21  2  0
 21 22  1  0
 22 23  1  0
 14  4  1  0
 23 15  1  0
 13  9  2  0
 23 19  2  0
M  END
>  <shape_align_shape_tanimoto>  (2) 
0.67712308023931755

>  <shape_align_color_tanimoto>  (2) 
0.16896329917626604

>  <metric>  (2) 
color

>  <metric_score>  (2) 
0.169

>  <template_pid>  (2) 
4DE0

>  <template_shape_score>  (2) 
0.677

>  <template_color_score>  (2) 
0.169

>  <template_combo_score>  (2) 
0.423

$$$$
4DE0_combo_pose
     RDKit          3D

 23 26  0  0  0  0  0  0  0  0999 V2000
  -32.9133   93.0372   19.5820 O   0  0  0  0  0  0  0  0  0  0  0  0
  -33.6465   92.5504   18.6870 C   0  0  0  0  0  0  0  0  0  0  0  0
  -33.0490   91.9752   17.5378 N   0  0  0  0  0  0  0  0  0  0  0  0
  -31.6261   91.9371   17.3638 C   0  0  0  0  0  0  0  0  0  0  0  0
  -31.0269   92.3482   16.1900 C   0  0  0  0  0  0  0  0  0  0  0  0
  -29.6273   92.2820   16.1218 C   0  0  0  0  0  0  0  0  0  0  0  0
  -28.8894   91.8124   17.2171 C   0  0  0  0  0  0  0  0  0  0  0  0
  -29.5246   91.4047   18.3879 C   0  0  0  0  0  0  0  0  0  0  0  0
  -28.8010   90.9147   19.5479 C   0  0  0  0  0  0  0  0  0  0  0  0
  -27.5953   91.2328   20.0381 N   0  0  0  0  0  0  0  0  0  0  0  0
  -27.3820   90.4875   21.1388 N   0  0  0  0  0  0  0  0  0  0  0  0
  -28.4481   89.7013   21.3452 N   0  0  0  0  0  0  0  0  0  0  0  0
  -29.3192   89.9611   20.3722 N   0  0  0  0  0  0  0  0  0  0  0  0
  -30.9151   91.4706   18.4555 C   0  0  0  0  0  0  0  0  0  0  0  0
  -35.0865   92.6127   18.9010 C   0  0  0  0  0  0  0  0  0  0  0  0
  -35.8876   92.6479   17.7951 C   0  0  0  0  0  0  0  0  0  0  0  0
  -37.2658   92.7256   18.0227 C   0  0  0  0  0  0  0  0  0  0  0  0
  -37.7584   92.7637   19.3237 C   0  0  0  0  0  0  0  0  0  0  0  0
  -36.9092   92.7253   20.4169 C   0  0  0  0  0  0  0  0  0  0  0  0
  -37.1160   92.7458   21.7556 N   0  0  0  0  0  0  0  0  0  0  0  0
  -35.9096   92.6835   22.3661 C   0  0  0  0  0  0  0  0  0  0  0  0
  -34.9579   92.6241   21.4196 N   0  0  0  0  0  0  0  0  0  0  0  0
  -35.5266   92.6468   20.2023 C   0  0  0  0  0  0  0  0  0  0  0  0
  1  2  2  0
  2  3  1  0
  3  4  1  0
  4  5  2  0
  5  6  1  0
  6  7  2  0
  7  8  1  0
  8  9  1  0
  9 10  1  0
 10 11  2  0
 11 12  1  0
 12 13  1  0
  8 14  2  0
  2 15  1  0
 15 16  2  0
 16 17  1  0
 17 18  2  0
 18 19  1  0
 19 20  1  0
 20 21  2  0
 21 22  1  0
 22 23  1  0
 14  4  1  0
 23 15  1  0
 13  9  2  0
 23 19  2  0
M  END
>  <shape_align_shape_tanimoto>  (3) 
0.79590705446279741

>  <shape_align_color_tanimoto>  (3) 
0.15722758040461252

>  <metric>  (3) 
combo

>  <metric_score>  (3) 
0.477

>  <template_pid>  (3) 
4DE0

>  <template_shape_score>  (3) 
0.796

>  <template_color_score>  (3) 
0.157

>  <template_combo_score>  (3) 
0.477

$$$$
