6QMT_shape_pose
     RDKit          3D

 27 29  0  0  0  0  0  0  0  0999 V2000
   -0.3961  -29.6772  -14.8378 N   0  0  0  0  0  0  0  0  0  0  0  0
   -1.0978  -29.2187  -13.6551 C   0  0  0  0  0  0  0  0  0  0  0  0
   -0.3423  -29.5340  -12.4141 C   0  0  0  0  0  0  0  0  0  0  0  0
   -0.5135  -30.7225  -11.7164 C   0  0  0  0  0  0  0  0  0  0  0  0
    0.2257  -30.9376  -10.5773 C   0  0  0  0  0  0  0  0  0  0  0  0
    1.1453  -30.0022  -10.0944 C   0  0  0  0  0  0  0  0  0  0  0  0
    1.3021  -28.8263  -10.8013 C   0  0  0  0  0  0  0  0  0  0  0  0
    2.2357  -27.7756  -10.3928 C   0  0  0  0  0  0  0  0  0  0  0  0
    3.4033  -28.1434   -9.7477 C   0  0  0  0  0  0  0  0  0  0  0  0
    4.2836  -27.1525   -9.3639 C   0  0  0  0  0  0  0  0  0  0  0  0
    3.9969  -25.8216   -9.6224 C   0  0  0  0  0  0  0  0  0  0  0  0
    2.8310  -25.4283  -10.2686 C   0  0  0  0  0  0  0  0  0  0  0  0
    2.5364  -24.0130  -10.5392 C   0  0  0  0  0  0  0  0  0  0  0  0
    1.4147  -23.8040  -11.1207 O   0  0  0  0  0  0  0  0  0  0  0  0
    3.4019  -22.9682  -10.1953 N   0  0  0  0  0  0  0  0  0  0  0  0
    3.1611  -21.5845  -10.4290 C   0  0  0  0  0  0  0  0  0  0  0  0
    3.5039  -21.1188  -11.6980 C   0  0  0  0  0  0  0  0  0  0  0  0
    3.3510  -19.7944  -12.0444 C   0  0  0  0  0  0  0  0  0  0  0  0
    2.8437  -18.9464  -11.0827 C   0  0  0  0  0  0  0  0  0  0  0  0
    2.5033  -19.4026   -9.8271 C   0  0  0  0  0  0  0  0  0  0  0  0
    2.6522  -20.7445   -9.4587 C   0  0  0  0  0  0  0  0  0  0  0  0
    2.2822  -21.2092   -8.1109 C   0  0  0  0  0  0  0  0  0  0  0  0
    0.9756  -21.8804   -8.0239 C   0  0  0  0  0  0  0  0  0  0  0  0
    0.1776  -22.0476   -8.9727 O   0  0  0  0  0  0  0  0  0  0  0  0
    0.5871  -22.3743   -6.7822 O   0  0  0  0  0  0  0  0  0  0  0  0
    1.9742  -26.4435  -10.6381 C   0  0  0  0  0  0  0  0  0  0  0  0
    0.5578  -28.6125  -11.9458 C   0  0  0  0  0  0  0  0  0  0  0  0
  1  2  1  0
  2  3  1  0
  3  4  2  0
  4  5  1  0
  5  6  2  0
  6  7  1  0
  7  8  1  0
  8  9  2  0
  9 10  1  0
 10 11  2  0
 11 12  1  0
 12 13  1  0
 13 14  2  0
 13 15  1  0
 15 16  1  0
 16 17  2  0
 17 18  1  0
 18 19  2  0
 19 20  1  0
 20 21  2  0
 21 22  1  0
 22 23  1  0
 23 24  2  0
 23 25  1  0
 12 26  2  0
  7 27  2  0
 27  3  1  0
 26  8  1  0
 21 16  1  0
M  CHG  2   1   1  25  -1
M  END
>  <shape_align_shape_tanimoto>  (1) 
0.27823876920961876

>  <shape_align_color_tanimoto>  (1) 
0.013816530244599905

>  <metric>  (1) 
shape

>  <metric_score>  (1) 
0.278

>  <template_pid>  (1) 
6QMT

>  <template_shape_score>  (1) 
0.278

>  <template_color_score>  (1) 
0.014

>  <template_combo_score>  (1) 
0.146

$$$$
6QMT_color_pose
     RDKit          3D

 27 29  0  0  0  0  0  0  0  0999 V2000
   -0.3876  -32.0043  -17.1605 N   0  0  0  0  0  0  0  0  0  0  0  0
   -1.5439  -31.7868  -16.3099 C   0  0  0  0  0  0  0  0  0  0  0  0
   -1.3159  -30.5293  -15.5185 C   0  0  0  0  0  0  0  0  0  0  0  0
   -1.7126  -29.2932  -15.9662 C   0  0  0  0  0  0  0  0  0  0  0  0
   -1.4699  -28.1778  -15.1908 C   0  0  0  0  0  0  0  0  0  0  0  0
   -0.8298  -28.2543  -13.9552 C   0  0  0  0  0  0  0  0  0  0  0  0
   -0.4314  -29.4977  -13.5062 C   0  0  0  0  0  0  0  0  0  0  0  0
    0.2548  -29.6646  -12.2095 C   0  0  0  0  0  0  0  0  0  0  0  0
    0.1076  -30.8126  -11.4578 C   0  0  0  0  0  0  0  0  0  0  0  0
    0.7808  -30.9068  -10.2495 C   0  0  0  0  0  0  0  0  0  0  0  0
    1.5877  -29.8418   -9.8253 C   0  0  0  0  0  0  0  0  0  0  0  0
    1.7322  -28.6948  -10.5799 C   0  0  0  0  0  0  0  0  0  0  0  0
    2.6037  -27.6222  -10.0562 C   0  0  0  0  0  0  0  0  0  0  0  0
    3.1569  -27.8756   -8.9578 O   0  0  0  0  0  0  0  0  0  0  0  0
    2.8084  -26.4023  -10.7262 N   0  0  0  0  0  0  0  0  0  0  0  0
    3.6192  -25.3300  -10.3018 C   0  0  0  0  0  0  0  0  0  0  0  0
    4.3721  -25.2895   -9.1652 C   0  0  0  0  0  0  0  0  0  0  0  0
    5.1567  -24.1956   -8.7971 C   0  0  0  0  0  0  0  0  0  0  0  0
    5.2051  -23.0718   -9.5945 C   0  0  0  0  0  0  0  0  0  0  0  0
    4.4421  -23.1083  -10.7492 C   0  0  0  0  0  0  0  0  0  0  0  0
    3.6701  -24.1851  -11.1106 C   0  0  0  0  0  0  0  0  0  0  0  0
    2.8834  -24.1322  -12.3661 C   0  0  0  0  0  0  0  0  0  0  0  0
    3.4968  -24.9287  -13.4580 C   0  0  0  0  0  0  0  0  0  0  0  0
    4.5772  -25.5741  -13.3135 O   0  0  0  0  0  0  0  0  0  0  0  0
    2.8356  -24.9478  -14.6772 O   0  0  0  0  0  0  0  0  0  0  0  0
    1.0669  -28.6180  -11.7599 C   0  0  0  0  0  0  0  0  0  0  0  0
   -0.6875  -30.5959  -14.3026 C   0  0  0  0  0  0  0  0  0  0  0  0
  1  2  1  0
  2  3  1  0
  3  4  2  0
  4  5  1  0
  5  6  2  0
  6  7  1  0
  7  8  1  0
  8  9  2  0
  9 10  1  0
 10 11  2  0
 11 12  1  0
 12 13  1  0
 13 14  2  0
 13 15  1  0
 15 16  1  0
 16 17  2  0
 17 18  1  0
 18 19  2  0
 19 20  1  0
 20 21  2  0
 21 22  1  0
 22 23  1  0
 23 24  2  0
 23 25  1  0
 12 26  2  0
  7 27  2  0
 27  3  1  0
 26  8  1  0
 21 16  1  0
M  CHG  2   1   1  25  -1
M  END
>  <shape_align_shape_tanimoto>  (2) 
0.25383903385420553

>  <shape_align_color_tanimoto>  (2) 
0.055922402396091753

>  <metric>  (2) 
color

>  <metric_score>  (2) 
0.056

>  <template_pid>  (2) 
6QMT

>  <template_shape_score>  (2) 
0.254

>  <template_color_score>  (2) 
0.056

>  <template_combo_score>  (2) 
0.155

$$$$
6QMT_combo_pose
     RDKit          3D

 27 29  0  0  0  0  0  0  0  0999 V2000
    0.2342  -31.9709  -17.3938 N   0  0  0  0  0  0  0  0  0  0  0  0
   -0.8484  -31.8977  -16.4564 C   0  0  0  0  0  0  0  0  0  0  0  0
   -0.8000  -30.7027  -15.5712 C   0  0  0  0  0  0  0  0  0  0  0  0
   -1.4446  -29.5616  -16.0134 C   0  0  0  0  0  0  0  0  0  0  0  0
   -1.4609  -28.4006  -15.2708 C   0  0  0  0  0  0  0  0  0  0  0  0
   -0.8044  -28.4154  -14.0561 C   0  0  0  0  0  0  0  0  0  0  0  0
   -0.1474  -29.5619  -13.5941 C   0  0  0  0  0  0  0  0  0  0  0  0
    0.5276  -29.4941  -12.2879 C   0  0  0  0  0  0  0  0  0  0  0  0
    0.6199  -30.6227  -11.4972 C   0  0  0  0  0  0  0  0  0  0  0  0
    1.2583  -30.5264  -10.2773 C   0  0  0  0  0  0  0  0  0  0  0  0
    1.7968  -29.3011   -9.8637 C   0  0  0  0  0  0  0  0  0  0  0  0
    1.7031  -28.1701  -10.6586 C   0  0  0  0  0  0  0  0  0  0  0  0
    2.2947  -26.9040  -10.1600 C   0  0  0  0  0  0  0  0  0  0  0  0
    2.8378  -26.9953   -9.0267 O   0  0  0  0  0  0  0  0  0  0  0  0
    2.2517  -25.7147  -10.8863 N   0  0  0  0  0  0  0  0  0  0  0  0
    2.7715  -24.4597  -10.5091 C   0  0  0  0  0  0  0  0  0  0  0  0
    4.1233  -24.2102  -10.7511 C   0  0  0  0  0  0  0  0  0  0  0  0
    4.7020  -22.9875  -10.4439 C   0  0  0  0  0  0  0  0  0  0  0  0
    3.9352  -21.9830   -9.8847 C   0  0  0  0  0  0  0  0  0  0  0  0
    2.6045  -22.2333   -9.6482 C   0  0  0  0  0  0  0  0  0  0  0  0
    2.0249  -23.4430   -9.9503 C   0  0  0  0  0  0  0  0  0  0  0  0
    0.5846  -23.6135   -9.6511 C   0  0  0  0  0  0  0  0  0  0  0  0
    0.4450  -24.3430   -8.3775 C   0  0  0  0  0  0  0  0  0  0  0  0
    1.3935  -24.7166   -7.6504 O   0  0  0  0  0  0  0  0  0  0  0  0
   -0.8405  -24.6438   -7.9423 O   0  0  0  0  0  0  0  0  0  0  0  0
    1.0733  -28.2799  -11.8540 C   0  0  0  0  0  0  0  0  0  0  0  0
   -0.1443  -30.7153  -14.3565 C   0  0  0  0  0  0  0  0  0  0  0  0
  1  2  1  0
  2  3  1  0
  3  4  2  0
  4  5  1  0
  5  6  2  0
  6  7  1  0
  7  8  1  0
  8  9  2  0
  9 10  1  0
 10 11  2  0
 11 12  1  0
 12 13  1  0
 13 14  2  0
 13 15  1  0
 15 16  1  0
 16 17  2  0
 17 18  1  0
 18 19  2  0
 19 20  1  0
 20 21  2  0
 21 22  1  0
 22 23  1  0
 23 24  2  0
 23 25  1  0
 12 26  2  0
  7 27  2  0
 27  3  1  0
 26  8  1  0
 21 16  1  0
M  CHG  2   1   1  25  -1
M  END
>  <shape_align_shape_tanimoto>  (3) 
0.26393840404385166

>  <shape_align_color_tanimoto>  (3) 
0.051797140438639429

>  <metric>  (3) 
combo

>  <metric_score>  (3) 
0.158

>  <template_pid>  (3) 
6QMT

>  <template_shape_score>  (3) 
0.264

>  <template_color_score>  (3) 
0.052

>  <template_combo_score>  (3) 
0.158

$$$$
