1N3I_shape_pose
     RDKit          3D

 19 21  0  0  0  0  0  0  0  0999 V2000
   35.1880   46.3678    5.7235 O   0  0  0  0  0  0  0  0  0  0  0  0
   34.6162   46.8699    6.7186 C   0  0  0  0  0  0  0  0  0  0  0  0
   33.3008   46.7395    6.9628 N   0  0  0  0  0  0  0  0  0  0  0  0
   32.6905   47.2821    8.0350 C   0  0  0  0  0  0  0  0  0  0  0  0
   33.4222   48.0006    8.9267 N   0  0  0  0  0  0  0  0  0  0  0  0
   34.7371   48.1638    8.7347 C   0  0  0  0  0  0  0  0  0  0  0  0
   35.7251   48.8229    9.4450 C   0  0  0  0  0  0  0  0  0  0  0  0
   35.5801   49.5878   10.7122 C   0  0  0  0  0  0  0  0  0  0  0  0
   34.9753   50.8612   10.4586 N   0  0  2  0  0  0  0  0  0  0  0  0
   35.0851   51.3376    9.1131 C   0  0  0  0  0  0  0  0  0  0  0  0
   36.1591   52.3737    9.0875 C   0  0  2  0  0  0  0  0  0  0  0  0
   37.1654   52.2294    8.0013 C   0  0  0  0  0  0  0  0  0  0  0  0
   36.4994   52.3012    6.7843 O   0  0  0  0  0  0  0  0  0  0  0  0
   36.8048   52.2861   10.4731 C   0  0  1  0  0  0  0  0  0  0  0  0
   37.3542   53.4817   10.8640 O   0  0  0  0  0  0  0  0  0  0  0  0
   35.5671   51.8924   11.2821 C   0  0  0  0  0  0  0  0  0  0  0  0
   36.8929   48.6305    8.7393 C   0  0  0  0  0  0  0  0  0  0  0  0
   36.6729   47.8905    7.6374 N   0  0  0  0  0  0  0  0  0  0  0  0
   35.3719   47.6009    7.6219 C   0  0  0  0  0  0  0  0  0  0  0  0
  1  2  2  0
  2  3  1  0
  3  4  1  0
  4  5  2  0
  5  6  1  0
  6  7  1  0
  7  8  1  0
  9  8  1  6
  9 10  1  0
 10 11  1  0
 11 12  1  6
 12 13  1  0
 11 14  1  0
 14 15  1  1
 14 16  1  0
  7 17  2  0
 17 18  1  0
 18 19  1  0
 19  2  1  0
 19  6  2  0
 16  9  1  0
M  CHG  1   9   1
M  END
>  <shape_align_shape_tanimoto>  (1) 
0.80661845843392943

>  <shape_align_color_tanimoto>  (1) 
0.11051109733690864

>  <metric>  (1) 
shape

>  <metric_score>  (1) 
0.807

>  <template_pid>  (1) 
1N3I

>  <template_shape_score>  (1) 
0.807

>  <template_color_score>  (1) 
0.111

>  <template_combo_score>  (1) 
0.459

$$$$
1N3I_color_pose
     RDKit          3D

 19 21  0  0  0  0  0  0  0  0999 V2000
   33.9282   46.5474    5.4587 O   0  0  0  0  0  0  0  0  0  0  0  0
   33.9110   46.9649    6.6445 C   0  0  0  0  0  0  0  0  0  0  0  0
   32.7820   46.9537    7.4045 N   0  0  0  0  0  0  0  0  0  0  0  0
   32.7641   47.3997    8.6711 C   0  0  0  0  0  0  0  0  0  0  0  0
   33.8726   47.8843    9.2577 N   0  0  0  0  0  0  0  0  0  0  0  0
   35.0289   47.9289    8.5736 C   0  0  0  0  0  0  0  0  0  0  0  0
   36.3142   48.3489    8.8569 C   0  0  0  0  0  0  0  0  0  0  0  0
   36.7849   48.9271   10.1456 C   0  0  0  0  0  0  0  0  0  0  0  0
   36.4050   50.2700   10.3489 N   0  0  2  0  0  0  0  0  0  0  0  0
   35.2908   50.4895   11.2513 C   0  0  0  0  0  0  0  0  0  0  0  0
   35.2462   52.0211   11.1730 C   0  0  2  0  0  0  0  0  0  0  0  0
   33.8528   52.5564   11.4249 C   0  0  0  0  0  0  0  0  0  0  0  0
   32.9975   52.0350   10.4626 O   0  0  0  0  0  0  0  0  0  0  0  0
   35.7174   52.3471    9.7693 C   0  0  1  0  0  0  0  0  0  0  0  0
   36.9975   52.9051    9.8064 O   0  0  0  0  0  0  0  0  0  0  0  0
   35.8745   50.9507    9.1691 C   0  0  0  0  0  0  0  0  0  0  0  0
   37.0668   48.1320    7.7209 C   0  0  0  0  0  0  0  0  0  0  0  0
   36.2844   47.5907    6.7444 N   0  0  0  0  0  0  0  0  0  0  0  0
   35.0450   47.4707    7.2732 C   0  0  0  0  0  0  0  0  0  0  0  0
  1  2  2  0
  2  3  1  0
  3  4  1  0
  4  5  2  0
  5  6  1  0
  6  7  1  0
  7  8  1  0
  9  8  1  6
  9 10  1  0
 10 11  1  0
 11 12  1  6
 12 13  1  0
 11 14  1  0
 14 15  1  1
 14 16  1  0
  7 17  2  0
 17 18  1  0
 18 19  1  0
 19  2  1  0
 19  6  2  0
 16  9  1  0
M  CHG  1   9   1
M  END
>  <shape_align_shape_tanimoto>  (2) 
0.79452923906238038

>  <shape_align_color_tanimoto>  (2) 
0.20149944784411603

>  <metric>  (2) 
color

>  <metric_score>  (2) 
0.201

>  <template_pid>  (2) 
1N3I

>  <template_shape_score>  (2) 
0.795

>  <template_color_score>  (2) 
0.201

>  <template_combo_score>  (2) 
0.498

$$$$
1N3I_combo_pose
     RDKit          3D

 19 21  0  0  0  0  0  0  0  0999 V2000
   33.9282   46.5474    5.4587 O   0  0  0  0  0  0  0  0  0  0  0  0
   33.9110   46.9649    6.6445 C   0  0  0  0  0  0  0  0  0  0  0  0
   32.7820   46.9537    7.4045 N   0  0  0  0  0  0  0  0  0  0  0  0
   32.7641   47.3997    8.6711 C   0  0  0  0  0  0  0  0  0  0  0  0
   33.8726   47.8843    9.2577 N   0  0  0  0  0  0  0  0  0  0  0  0
   35.0289   47.9289    8.5736 C   0  0  0  0  0  0  0  0  0  0  0  0
   36.3142   48.3489    8.8569 C   0  0  0  0  0  0  0  0  0  0  0  0
   36.7849   48.9271   10.1456 C   0  0  0  0  0  0  0  0  0  0  0  0
   36.4050   50.2700   10.3489 N   0  0  2  0  0  0  0  0  0  0  0  0
   35.2908   50.4895   11.2513 C   0  0  0  0  0  0  0  0  0  0  0  0
   35.2462   52.0211   11.1730 C   0  0  2  0  0  0  0  0  0  0  0  0
   33.8528   52.5564   11.4249 C   0  0  0  0  0  0  0  0  0  0  0  0
   32.9975   52.0350   10.4626 O   0  0  0  0  0  0  0  0  0  0  0  0
   35.7174   52.3471    9.7693 C   0  0  1  0  0  0  0  0  0  0  0  0
   36.9975   52.9051    9.8064 O   0  0  0  0  0  0  0  0  0  0  0  0
   35.8745   50.9507    9.1691 C   0  0  0  0  0  0  0  0  0  0  0  0
   37.0668   48.1320    7.7209 C   0  0  0  0  0  0  0  0  0  0  0  0
   36.2844   47.5907    6.7444 N   0  0  0  0  0  0  0  0  0  0  0  0
   35.0450   47.4707    7.2732 C   0  0  0  0  0  0  0  0  0  0  0  0
  1  2  2  0
  2  3  1  0
  3  4  1  0
  4  5  2  0
  5  6  1  0
  6  7  1  0
  7  8  1  0
  9  8  1  6
  9 10  1  0
 10 11  1  0
 11 12  1  6
 12 13  1  0
 11 14  1  0
 14 15  1  1
 14 16  1  0
  7 17  2  0
 17 18  1  0
 18 19  1  0
 19  2  1  0
 19  6  2  0
 16  9  1  0
M  CHG  1   9   1
M  END
>  <shape_align_shape_tanimoto>  (3) 
0.79452923906238038

>  <shape_align_color_tanimoto>  (3) 
0.20149944784411603

>  <metric>  (3) 
combo

>  <metric_score>  (3) 
0.498

>  <template_pid>  (3) 
1N3I

>  <template_shape_score>  (3) 
0.795

>  <template_color_score>  (3) 
0.201

>  <template_combo_score>  (3) 
0.498

$$$$
