6QR9_shape_pose
     RDKit          3D

 31 35  0  0  0  0  0  0  0  0999 V2000
   39.1954   26.5513   16.7988 N   0  0  0  0  0  0  0  0  0  0  0  0
   38.1478   26.4536   17.2678 C   0  0  0  0  0  0  0  0  0  0  0  0
   36.8577   26.3441   17.8591 C   0  0  0  0  0  0  0  0  0  0  0  0
   35.6323   26.5647   17.2643 C   0  0  0  0  0  0  0  0  0  0  0  0
   35.3941   26.9637   15.8796 C   0  0  0  0  0  0  0  0  0  0  0  0
   34.4029   26.3215   15.1490 C   0  0  0  0  0  0  0  0  0  0  0  0
   34.1635   26.6852   13.8389 C   0  0  0  0  0  0  0  0  0  0  0  0
   34.8725   27.6722   13.2087 C   0  0  0  0  0  0  0  0  0  0  0  0
   34.8577   28.2343   11.9483 C   0  0  0  0  0  0  0  0  0  0  0  0
   35.8344   29.1942   11.9535 C   0  0  0  0  0  0  0  0  0  0  0  0
   36.4499   29.2492   13.1583 N   0  0  0  0  0  0  0  0  0  0  0  0
   37.5235   30.1739   13.4488 C   0  0  0  0  0  0  0  0  0  0  0  0
   38.8384   29.5557   13.1188 C   0  0  0  0  0  0  0  0  0  0  0  0
   39.3678   29.7086   11.8518 C   0  0  0  0  0  0  0  0  0  0  0  0
   40.5894   29.1436   11.5186 C   0  0  0  0  0  0  0  0  0  0  0  0
   41.3270   28.4047   12.4403 C   0  0  0  0  0  0  0  0  0  0  0  0
   42.6133   27.8161   12.0717 C   0  0  0  0  0  0  0  0  0  0  0  0
   43.7615   28.6718   12.3085 N   0  0  0  0  0  0  0  0  0  0  0  0
   44.0316   28.8874   13.6862 C   0  0  0  0  0  0  0  0  0  0  0  0
   43.5325   30.1955   14.2253 C   0  0  0  0  0  0  0  0  0  0  0  0
   42.6812   30.8807   13.3818 O   0  0  0  0  0  0  0  0  0  0  0  0
   43.1756   31.0749   12.1133 C   0  0  0  0  0  0  0  0  0  0  0  0
   43.7708   29.8571   11.4926 C   0  0  0  0  0  0  0  0  0  0  0  0
   40.7748   28.2678   13.6981 C   0  0  0  0  0  0  0  0  0  0  0  0
   39.5569   28.8254   14.0461 C   0  0  0  0  0  0  0  0  0  0  0  0
   35.8718   28.3209   13.9423 C   0  0  0  0  0  0  0  0  0  0  0  0
   36.1117   27.9594   15.2487 C   0  0  0  0  0  0  0  0  0  0  0  0
   34.6761   26.3421   18.2064 N   0  0  0  0  0  0  0  0  0  0  0  0
   35.2714   25.9955   19.3483 N   0  0  0  0  0  0  0  0  0  0  0  0
   36.6056   25.9835   19.1833 C   0  0  0  0  0  0  0  0  0  0  0  0
   37.6242   25.6702   20.1405 N   0  0  0  0  0  0  0  0  0  0  0  0
  1  2  3  0
  2  3  1  0
  3  4  1  0
  4  5  1  0
  5  6  2  0
  6  7  1  0
  7  8  2  0
  8  9  1  0
  9 10  2  0
 10 11  1  0
 11 12  1  0
 12 13  1  0
 13 14  2  0
 14 15  1  0
 15 16  2  0
 16 17  1  0
 17 18  1  0
 18 19  1  0
 19 20  1  0
 20 21  1  0
 21 22  1  0
 22 23  1  0
 16 24  1  0
 24 25  2  0
 11 26  1  0
 26 27  2  0
  4 28  2  0
 28 29  1  0
 29 30  1  0
 30 31  1  0
 30  3  2  0
 27  5  1  0
 26  8  1  0
 25 13  1  0
 23 18  1  0
M  CHG  1  18   1
M  END
>  <shape_align_shape_tanimoto>  (1) 
0.42375685109345507

>  <shape_align_color_tanimoto>  (1) 
0.030269379404188994

>  <metric>  (1) 
shape

>  <metric_score>  (1) 
0.424

>  <template_pid>  (1) 
6QR9

>  <template_shape_score>  (1) 
0.424

>  <template_color_score>  (1) 
0.030

>  <template_combo_score>  (1) 
0.227

$$$$
6QR9_color_pose
     RDKit          3D

 31 35  0  0  0  0  0  0  0  0999 V2000
   37.9043   25.7564   14.1977 N   0  0  0  0  0  0  0  0  0  0  0  0
   37.5699   26.8420   13.8894 C   0  0  0  0  0  0  0  0  0  0  0  0
   37.1558   28.1603   13.5152 C   0  0  0  0  0  0  0  0  0  0  0  0
   37.9927   29.2388   13.2426 C   0  0  0  0  0  0  0  0  0  0  0  0
   39.4444   29.1379   13.3121 C   0  0  0  0  0  0  0  0  0  0  0  0
   39.9567   28.4770   14.4317 C   0  0  0  0  0  0  0  0  0  0  0  0
   41.3331   28.3211   14.6025 C   0  0  0  0  0  0  0  0  0  0  0  0
   42.1415   28.8492   13.6174 C   0  0  0  0  0  0  0  0  0  0  0  0
   43.5158   28.8537   13.5076 C   0  0  0  0  0  0  0  0  0  0  0  0
   43.8211   29.5086   12.3378 C   0  0  0  0  0  0  0  0  0  0  0  0
   42.6669   29.9014   11.7353 N   0  0  0  0  0  0  0  0  0  0  0  0
   42.6581   30.6169   10.4828 C   0  0  0  0  0  0  0  0  0  0  0  0
   42.6025   29.6244    9.3718 C   0  0  0  0  0  0  0  0  0  0  0  0
   41.3992   29.1791    8.8616 C   0  0  0  0  0  0  0  0  0  0  0  0
   41.3967   28.2560    7.8285 C   0  0  0  0  0  0  0  0  0  0  0  0
   42.5647   27.7610    7.2861 C   0  0  0  0  0  0  0  0  0  0  0  0
   42.5513   26.7624    6.1676 C   0  0  0  0  0  0  0  0  0  0  0  0
   42.5349   25.4531    6.7289 N   0  0  0  0  0  0  0  0  0  0  0  0
   43.3715   24.5089    6.0168 C   0  0  0  0  0  0  0  0  0  0  0  0
   43.1085   23.1409    6.6311 C   0  0  0  0  0  0  0  0  0  0  0  0
   42.1521   23.1879    7.6371 O   0  0  0  0  0  0  0  0  0  0  0  0
   42.4329   24.0705    8.6542 C   0  0  0  0  0  0  0  0  0  0  0  0
   42.9924   25.3948    8.1154 C   0  0  0  0  0  0  0  0  0  0  0  0
   43.7876   28.2095    7.8000 C   0  0  0  0  0  0  0  0  0  0  0  0
   43.7789   29.1305    8.8307 C   0  0  0  0  0  0  0  0  0  0  0  0
   41.6393   29.5054   12.5052 C   0  0  0  0  0  0  0  0  0  0  0  0
   40.2806   29.6531   12.3474 C   0  0  0  0  0  0  0  0  0  0  0  0
   37.2163   30.2845   12.9328 N   0  0  0  0  0  0  0  0  0  0  0  0
   35.9311   29.9169   12.9969 N   0  0  0  0  0  0  0  0  0  0  0  0
   35.8532   28.6147   13.3528 C   0  0  0  0  0  0  0  0  0  0  0  0
   34.6943   27.8274   13.5361 N   0  0  0  0  0  0  0  0  0  0  0  0
  1  2  3  0
  2  3  1  0
  3  4  1  0
  4  5  1  0
  5  6  2  0
  6  7  1  0
  7  8  2  0
  8  9  1  0
  9 10  2  0
 10 11  1  0
 11 12  1  0
 12 13  1  0
 13 14  2  0
 14 15  1  0
 15 16  2  0
 16 17  1  0
 17 18  1  0
 18 19  1  0
 19 20  1  0
 20 21  1  0
 21 22  1  0
 22 23  1  0
 16 24  1  0
 24 25  2  0
 11 26  1  0
 26 27  2  0
  4 28  2  0
 28 29  1  0
 29 30  1  0
 30 31  1  0
 30  3  2  0
 27  5  1  0
 26  8  1  0
 25 13  1  0
 23 18  1  0
M  CHG  1  18   1
M  END
>  <shape_align_shape_tanimoto>  (2) 
0.38432686935221139

>  <shape_align_color_tanimoto>  (2) 
0.082515648024620372

>  <metric>  (2) 
color

>  <metric_score>  (2) 
0.083

>  <template_pid>  (2) 
6QR9

>  <template_shape_score>  (2) 
0.384

>  <template_color_score>  (2) 
0.083

>  <template_combo_score>  (2) 
0.233

$$$$
6QR9_combo_pose
     RDKit          3D

 31 35  0  0  0  0  0  0  0  0999 V2000
   37.9043   25.7564   14.1977 N   0  0  0  0  0  0  0  0  0  0  0  0
   37.5699   26.8420   13.8894 C   0  0  0  0  0  0  0  0  0  0  0  0
   37.1558   28.1603   13.5152 C   0  0  0  0  0  0  0  0  0  0  0  0
   37.9927   29.2388   13.2426 C   0  0  0  0  0  0  0  0  0  0  0  0
   39.4444   29.1379   13.3121 C   0  0  0  0  0  0  0  0  0  0  0  0
   39.9567   28.4770   14.4317 C   0  0  0  0  0  0  0  0  0  0  0  0
   41.3331   28.3211   14.6025 C   0  0  0  0  0  0  0  0  0  0  0  0
   42.1415   28.8492   13.6174 C   0  0  0  0  0  0  0  0  0  0  0  0
   43.5158   28.8537   13.5076 C   0  0  0  0  0  0  0  0  0  0  0  0
   43.8211   29.5086   12.3378 C   0  0  0  0  0  0  0  0  0  0  0  0
   42.6669   29.9014   11.7353 N   0  0  0  0  0  0  0  0  0  0  0  0
   42.6581   30.6169   10.4828 C   0  0  0  0  0  0  0  0  0  0  0  0
   42.6025   29.6244    9.3718 C   0  0  0  0  0  0  0  0  0  0  0  0
   41.3992   29.1791    8.8616 C   0  0  0  0  0  0  0  0  0  0  0  0
   41.3967   28.2560    7.8285 C   0  0  0  0  0  0  0  0  0  0  0  0
   42.5647   27.7610    7.2861 C   0  0  0  0  0  0  0  0  0  0  0  0
   42.5513   26.7624    6.1676 C   0  0  0  0  0  0  0  0  0  0  0  0
   42.5349   25.4531    6.7289 N   0  0  0  0  0  0  0  0  0  0  0  0
   43.3715   24.5089    6.0168 C   0  0  0  0  0  0  0  0  0  0  0  0
   43.1085   23.1409    6.6311 C   0  0  0  0  0  0  0  0  0  0  0  0
   42.1521   23.1879    7.6371 O   0  0  0  0  0  0  0  0  0  0  0  0
   42.4329   24.0705    8.6542 C   0  0  0  0  0  0  0  0  0  0  0  0
   42.9924   25.3948    8.1154 C   0  0  0  0  0  0  0  0  0  0  0  0
   43.7876   28.2095    7.8000 C   0  0  0  0  0  0  0  0  0  0  0  0
   43.7789   29.1305    8.8307 C   0  0  0  0  0  0  0  0  0  0  0  0
   41.6393   29.5054   12.5052 C   0  0  0  0  0  0  0  0  0  0  0  0
   40.2806   29.6531   12.3474 C   0  0  0  0  0  0  0  0  0  0  0  0
   37.2163   30.2845   12.9328 N   0  0  0  0  0  0  0  0  0  0  0  0
   35.9311   29.9169   12.9969 N   0  0  0  0  0  0  0  0  0  0  0  0
   35.8532   28.6147   13.3528 C   0  0  0  0  0  0  0  0  0  0  0  0
   34.6943   27.8274   13.5361 N   0  0  0  0  0  0  0  0  0  0  0  0
  1  2  3  0
  2  3  1  0
  3  4  1  0
  4  5  1  0
  5  6  2  0
  6  7  1  0
  7  8  2  0
  8  9  1  0
  9 10  2  0
 10 11  1  0
 11 12  1  0
 12 13  1  0
 13 14  2  0
 14 15  1  0
 15 16  2  0
 16 17  1  0
 17 18  1  0
 18 19  1  0
 19 20  1  0
 20 21  1  0
 21 22  1  0
 22 23  1  0
 16 24  1  0
 24 25  2  0
 11 26  1  0
 26 27  2  0
  4 28  2  0
 28 29  1  0
 29 30  1  0
 30 31  1  0
 30  3  2  0
 27  5  1  0
 26  8  1  0
 25 13  1  0
 23 18  1  0
M  CHG  1  18   1
M  END
>  <shape_align_shape_tanimoto>  (3) 
0.38432686935221139

>  <shape_align_color_tanimoto>  (3) 
0.082515648024620372

>  <metric>  (3) 
combo

>  <metric_score>  (3) 
0.233

>  <template_pid>  (3) 
6QR9

>  <template_shape_score>  (3) 
0.384

>  <template_color_score>  (3) 
0.083

>  <template_combo_score>  (3) 
0.233

$$$$
