2XN3_shape_pose
     RDKit          3D

 18 19  0  0  0  0  0  0  0  0999 V2000
   -9.7135  -49.5442  -63.8252 C   0  0  0  0  0  0  0  0  0  0  0  0
   -9.6262  -48.2607  -64.6081 C   0  0  0  0  0  0  0  0  0  0  0  0
   -9.5973  -48.3255  -65.9814 C   0  0  0  0  0  0  0  0  0  0  0  0
   -9.5185  -47.1537  -66.6742 C   0  0  0  0  0  0  0  0  0  0  0  0
   -9.4716  -45.9705  -65.9898 C   0  0  0  0  0  0  0  0  0  0  0  0
   -9.4969  -45.8416  -64.6212 C   0  0  0  0  0  0  0  0  0  0  0  0
   -9.4494  -44.6361  -63.9033 N   0  0  0  0  0  0  0  0  0  0  0  0
  -10.3295  -44.1268  -62.9375 C   0  0  0  0  0  0  0  0  0  0  0  0
   -9.7627  -43.9581  -61.6636 C   0  0  0  0  0  0  0  0  0  0  0  0
  -10.4451  -43.4773  -60.5838 C   0  0  0  0  0  0  0  0  0  0  0  0
  -11.7614  -43.1361  -60.7413 C   0  0  0  0  0  0  0  0  0  0  0  0
  -12.3247  -43.2952  -61.9783 C   0  0  0  0  0  0  0  0  0  0  0  0
  -11.6363  -43.7852  -63.0907 C   0  0  0  0  0  0  0  0  0  0  0  0
  -12.3565  -43.8408  -64.3300 C   0  0  0  0  0  0  0  0  0  0  0  0
  -13.5804  -43.5017  -64.3369 O   0  0  0  0  0  0  0  0  0  0  0  0
  -11.8657  -44.2280  -65.5583 O   0  0  0  0  0  0  0  0  0  0  0  0
   -9.5780  -47.0513  -63.9125 C   0  0  0  0  0  0  0  0  0  0  0  0
   -9.6119  -47.1087  -62.4433 C   0  0  0  0  0  0  0  0  0  0  0  0
  1  2  1  0
  2  3  2  0
  3  4  1  0
  4  5  2  0
  5  6  1  0
  6  7  1  0
  7  8  1  0
  8  9  2  0
  9 10  1  0
 10 11  2  0
 11 12  1  0
 12 13  2  0
 13 14  1  0
 14 15  2  0
 14 16  1  0
  6 17  2  0
 17 18  1  0
 17  2  1  0
 13  8  1  0
M  CHG  1  16  -1
M  END
>  <shape_align_shape_tanimoto>  (1) 
0.28494594463768913

>  <shape_align_color_tanimoto>  (1) 
0.046982531703943071

>  <metric>  (1) 
shape

>  <metric_score>  (1) 
0.285

>  <template_pid>  (1) 
2XN3

>  <template_shape_score>  (1) 
0.285

>  <template_color_score>  (1) 
0.047

>  <template_combo_score>  (1) 
0.166

$$$$
2XN3_color_pose
     RDKit          3D

 18 19  0  0  0  0  0  0  0  0999 V2000
  -13.7160  -44.8987  -69.5361 C   0  0  0  0  0  0  0  0  0  0  0  0
  -14.0527  -44.8209  -68.0791 C   0  0  0  0  0  0  0  0  0  0  0  0
  -15.3465  -44.9830  -67.6273 C   0  0  0  0  0  0  0  0  0  0  0  0
  -15.6719  -44.9140  -66.2897 C   0  0  0  0  0  0  0  0  0  0  0  0
  -14.6604  -44.6753  -65.3889 C   0  0  0  0  0  0  0  0  0  0  0  0
  -13.3522  -44.5054  -65.7747 C   0  0  0  0  0  0  0  0  0  0  0  0
  -12.3011  -44.2284  -64.8259 N   0  0  0  0  0  0  0  0  0  0  0  0
  -11.2805  -45.1942  -64.6868 C   0  0  0  0  0  0  0  0  0  0  0  0
  -11.3950  -46.3719  -65.3957 C   0  0  0  0  0  0  0  0  0  0  0  0
  -10.4310  -47.3767  -65.3424 C   0  0  0  0  0  0  0  0  0  0  0  0
   -9.3398  -47.1430  -64.5382 C   0  0  0  0  0  0  0  0  0  0  0  0
   -9.2344  -45.9684  -63.8358 C   0  0  0  0  0  0  0  0  0  0  0  0
  -10.1891  -44.9572  -63.8803 C   0  0  0  0  0  0  0  0  0  0  0  0
   -9.9695  -43.7693  -63.1038 C   0  0  0  0  0  0  0  0  0  0  0  0
   -8.9101  -43.7083  -62.4119 O   0  0  0  0  0  0  0  0  0  0  0  0
  -10.7918  -42.6671  -63.0216 O   0  0  0  0  0  0  0  0  0  0  0  0
  -13.0707  -44.5831  -67.1420 C   0  0  0  0  0  0  0  0  0  0  0  0
  -11.6854  -44.3862  -67.6676 C   0  0  0  0  0  0  0  0  0  0  0  0
  1  2  1  0
  2  3  2  0
  3  4  1  0
  4  5  2  0
  5  6  1  0
  6  7  1  0
  7  8  1  0
  8  9  2  0
  9 10  1  0
 10 11  2  0
 11 12  1  0
 12 13  2  0
 13 14  1  0
 14 15  2  0
 14 16  1  0
  6 17  2  0
 17 18  1  0
 17  2  1  0
 13  8  1  0
M  CHG  1  16  -1
M  END
>  <shape_align_shape_tanimoto>  (2) 
0.24623447902902934

>  <shape_align_color_tanimoto>  (2) 
0.085883085218853558

>  <metric>  (2) 
color

>  <metric_score>  (2) 
0.086

>  <template_pid>  (2) 
2XN3

>  <template_shape_score>  (2) 
0.246

>  <template_color_score>  (2) 
0.086

>  <template_combo_score>  (2) 
0.166

$$$$
2XN3_combo_pose
     RDKit          3D

 18 19  0  0  0  0  0  0  0  0999 V2000
   -9.6355  -49.6422  -63.7969 C   0  0  0  0  0  0  0  0  0  0  0  0
   -9.6350  -48.4040  -64.6224 C   0  0  0  0  0  0  0  0  0  0  0  0
   -9.7037  -48.5398  -65.9859 C   0  0  0  0  0  0  0  0  0  0  0  0
   -9.7032  -47.3878  -66.7380 C   0  0  0  0  0  0  0  0  0  0  0  0
   -9.6359  -46.1698  -66.1153 C   0  0  0  0  0  0  0  0  0  0  0  0
   -9.5656  -45.9787  -64.7530 C   0  0  0  0  0  0  0  0  0  0  0  0
   -9.4962  -44.7522  -64.0955 N   0  0  0  0  0  0  0  0  0  0  0  0
  -10.3075  -44.2002  -63.0997 C   0  0  0  0  0  0  0  0  0  0  0  0
   -9.6620  -43.9405  -61.8846 C   0  0  0  0  0  0  0  0  0  0  0  0
  -10.2812  -43.4017  -60.7917 C   0  0  0  0  0  0  0  0  0  0  0  0
  -11.6164  -43.0869  -60.8631 C   0  0  0  0  0  0  0  0  0  0  0  0
  -12.2619  -43.3356  -62.0494 C   0  0  0  0  0  0  0  0  0  0  0  0
  -11.6213  -43.8872  -63.1653 C   0  0  0  0  0  0  0  0  0  0  0  0
  -12.4305  -44.0476  -64.3527 C   0  0  0  0  0  0  0  0  0  0  0  0
  -12.0474  -44.4792  -65.4587 O   0  0  0  0  0  0  0  0  0  0  0  0
  -13.7990  -43.6966  -64.3141 O   0  0  0  0  0  0  0  0  0  0  0  0
   -9.5661  -47.1600  -63.9887 C   0  0  0  0  0  0  0  0  0  0  0  0
   -9.4900  -47.1033  -62.5023 C   0  0  0  0  0  0  0  0  0  0  0  0
  1  2  1  0
  2  3  2  0
  3  4  1  0
  4  5  2  0
  5  6  1  0
  6  7  1  0
  7  8  1  0
  8  9  2  0
  9 10  1  0
 10 11  2  0
 11 12  1  0
 12 13  2  0
 13 14  1  0
 14 15  2  0
 14 16  1  0
  6 17  2  0
 17 18  1  0
 17  2  1  0
 13  8  1  0
M  CHG  1  16  -1
M  END
>  <shape_align_shape_tanimoto>  (3) 
0.2836533985602353

>  <shape_align_color_tanimoto>  (3) 
0.051216034000823987

>  <metric>  (3) 
combo

>  <metric_score>  (3) 
0.167

>  <template_pid>  (3) 
2XN3

>  <template_shape_score>  (3) 
0.284

>  <template_color_score>  (3) 
0.051

>  <template_combo_score>  (3) 
0.167

$$$$
