6E05_shape_pose
     RDKit          3D

 29 30  0  0  0  0  0  0  0  0999 V2000
   34.7179   47.3239    7.5272 N   0  0  0  0  0  0  0  0  0  0  0  0
   34.3124   48.6655    7.0757 C   0  0  0  0  0  0  0  0  0  0  0  0
   33.1993   49.0807    7.9985 C   0  0  0  0  0  0  0  0  0  0  0  0
   33.0819   50.5970    8.1409 C   0  0  0  0  0  0  0  0  0  0  0  0
   34.3132   51.0377    8.7676 N   0  0  0  0  0  0  0  0  0  0  0  0
   34.3380   52.0637    9.7634 C   0  0  2  0  0  0  0  0  0  0  0  0
   33.6075   51.6485   10.8673 O   0  0  0  0  0  0  0  0  0  0  0  0
   33.0856   52.7489   11.4827 C   0  0  2  0  0  0  0  0  0  0  0  0
   31.5769   52.6403   11.7008 C   0  0  0  0  0  0  0  0  0  0  0  0
   30.9594   52.5014   10.4884 O   0  0  0  0  0  0  0  0  0  0  0  0
   29.2909   52.3632   10.5392 P   0  0  2  0  0  5  0  0  0  0  0  0
   28.7446   52.0328   11.8894 O   0  0  0  0  0  0  0  0  0  0  0  0
   28.8503   51.0850    9.5034 O   0  0  0  0  0  0  0  0  0  0  0  0
   28.4996   53.7431    9.9754 O   0  0  0  0  0  0  0  0  0  0  0  0
   29.2779   54.3920    8.6211 P   0  0  1  0  0  5  0  0  0  0  0  0
   30.3953   55.3010    9.0928 O   0  0  0  0  0  0  0  0  0  0  0  0
   29.9896   53.1926    7.6784 O   0  0  0  0  0  0  0  0  0  0  0  0
   28.2263   55.3576    7.7167 O   0  0  0  0  0  0  0  0  0  0  0  0
   29.1497   56.1789    6.5572 P   0  0  0  0  0  0  0  0  0  0  0  0
   29.4590   55.2830    5.3666 O   0  0  0  0  0  0  0  0  0  0  0  0
   30.6324   56.6613    7.2380 O   0  0  0  0  0  0  0  0  0  0  0  0
   28.3794   57.5597    5.9958 O   0  0  0  0  0  0  0  0  0  0  0  0
   33.4413   53.9757   10.6932 C   0  0  1  0  0  0  0  0  0  0  0  0
   34.6006   54.5257   11.2666 O   0  0  0  0  0  0  0  0  0  0  0  0
   33.7401   53.3823    9.3324 C   0  0  1  0  0  0  0  0  0  0  0  0
   34.7041   54.1797    8.6745 O   0  0  0  0  0  0  0  0  0  0  0  0
   35.5437   50.4199    8.3703 C   0  0  0  0  0  0  0  0  0  0  0  0
   36.6395   50.6549    8.9172 O   0  0  0  0  0  0  0  0  0  0  0  0
   35.4850   49.4926    7.2918 N   0  0  0  0  0  0  0  0  0  0  0  0
  1  2  1  0
  2  3  1  0
  3  4  1  0
  4  5  1  0
  6  5  1  6
  6  7  1  0
  7  8  1  0
  8  9  1  6
  9 10  1  0
 10 11  1  0
 11 12  2  0
 11 13  1  6
 11 14  1  0
 14 15  1  0
 15 16  2  0
 15 17  1  6
 15 18  1  0
 18 19  1  0
 19 20  2  0
 19 21  1  0
 19 22  1  0
  8 23  1  0
 23 24  1  1
 23 25  1  0
 25 26  1  1
  5 27  1  0
 27 28  2  0
 27 29  1  0
 29  2  1  0
 25  6  1  0
M  CHG  1   1   1
M  END
>  <shape_align_shape_tanimoto>  (1) 
0.60791473740446467

>  <shape_align_color_tanimoto>  (1) 
0.18054699719695128

>  <metric>  (1) 
shape

>  <metric_score>  (1) 
0.608

>  <template_pid>  (1) 
6E05

>  <template_shape_score>  (1) 
0.608

>  <template_color_score>  (1) 
0.181

>  <template_combo_score>  (1) 
0.394

$$$$
6E05_color_pose
     RDKit          3D

 29 30  0  0  0  0  0  0  0  0999 V2000
   34.7179   47.3239    7.5272 N   0  0  0  0  0  0  0  0  0  0  0  0
   34.3124   48.6655    7.0757 C   0  0  0  0  0  0  0  0  0  0  0  0
   33.1993   49.0807    7.9985 C   0  0  0  0  0  0  0  0  0  0  0  0
   33.0819   50.5970    8.1409 C   0  0  0  0  0  0  0  0  0  0  0  0
   34.3132   51.0377    8.7676 N   0  0  0  0  0  0  0  0  0  0  0  0
   34.3380   52.0637    9.7634 C   0  0  2  0  0  0  0  0  0  0  0  0
   33.6075   51.6485   10.8673 O   0  0  0  0  0  0  0  0  0  0  0  0
   33.0856   52.7489   11.4827 C   0  0  2  0  0  0  0  0  0  0  0  0
   31.5769   52.6403   11.7008 C   0  0  0  0  0  0  0  0  0  0  0  0
   30.9594   52.5014   10.4884 O   0  0  0  0  0  0  0  0  0  0  0  0
   29.2909   52.3632   10.5392 P   0  0  2  0  0  5  0  0  0  0  0  0
   28.7446   52.0328   11.8894 O   0  0  0  0  0  0  0  0  0  0  0  0
   28.8503   51.0850    9.5034 O   0  0  0  0  0  0  0  0  0  0  0  0
   28.4996   53.7431    9.9754 O   0  0  0  0  0  0  0  0  0  0  0  0
   29.2779   54.3920    8.6211 P   0  0  1  0  0  5  0  0  0  0  0  0
   30.3953   55.3010    9.0928 O   0  0  0  0  0  0  0  0  0  0  0  0
   29.9896   53.1926    7.6784 O   0  0  0  0  0  0  0  0  0  0  0  0
   28.2263   55.3576    7.7167 O   0  0  0  0  0  0  0  0  0  0  0  0
   29.1497   56.1789    6.5572 P   0  0  0  0  0  0  0  0  0  0  0  0
   29.4590   55.2830    5.3666 O   0  0  0  0  0  0  0  0  0  0  0  0
   30.6324   56.6613    7.2380 O   0  0  0  0  0  0  0  0  0  0  0  0
   28.3794   57.5597    5.9958 O   0  0  0  0  0  0  0  0  0  0  0  0
   33.4413   53.9757   10.6932 C   0  0  1  0  0  0  0  0  0  0  0  0
   34.6006   54.5257   11.2666 O   0  0  0  0  0  0  0  0  0  0  0  0
   33.7401   53.3823    9.3324 C   0  0  1  0  0  0  0  0  0  0  0  0
   34.7041   54.1797    8.6745 O   0  0  0  0  0  0  0  0  0  0  0  0
   35.5437   50.4199    8.3703 C   0  0  0  0  0  0  0  0  0  0  0  0
   36.6395   50.6549    8.9172 O   0  0  0  0  0  0  0  0  0  0  0  0
   35.4850   49.4926    7.2918 N   0  0  0  0  0  0  0  0  0  0  0  0
  1  2  1  0
  2  3  1  0
  3  4  1  0
  4  5  1  0
  6  5  1  6
  6  7  1  0
  7  8  1  0
  8  9  1  6
  9 10  1  0
 10 11  1  0
 11 12  2  0
 11 13  1  6
 11 14  1  0
 14 15  1  0
 15 16  2  0
 15 17  1  6
 15 18  1  0
 18 19  1  0
 19 20  2  0
 19 21  1  0
 19 22  1  0
  8 23  1  0
 23 24  1  1
 23 25  1  0
 25 26  1  1
  5 27  1  0
 27 28  2  0
 27 29  1  0
 29  2  1  0
 25  6  1  0
M  CHG  1   1   1
M  END
>  <shape_align_shape_tanimoto>  (2) 
0.60791473740446467

>  <shape_align_color_tanimoto>  (2) 
0.18054699719695128

>  <metric>  (2) 
color

>  <metric_score>  (2) 
0.181

>  <template_pid>  (2) 
6E05

>  <template_shape_score>  (2) 
0.608

>  <template_color_score>  (2) 
0.181

>  <template_combo_score>  (2) 
0.394

$$$$
6E05_combo_pose
     RDKit          3D

 29 30  0  0  0  0  0  0  0  0999 V2000
   34.7179   47.3239    7.5272 N   0  0  0  0  0  0  0  0  0  0  0  0
   34.3124   48.6655    7.0757 C   0  0  0  0  0  0  0  0  0  0  0  0
   33.1993   49.0807    7.9985 C   0  0  0  0  0  0  0  0  0  0  0  0
   33.0819   50.5970    8.1409 C   0  0  0  0  0  0  0  0  0  0  0  0
   34.3132   51.0377    8.7676 N   0  0  0  0  0  0  0  0  0  0  0  0
   34.3380   52.0637    9.7634 C   0  0  2  0  0  0  0  0  0  0  0  0
   33.6075   51.6485   10.8673 O   0  0  0  0  0  0  0  0  0  0  0  0
   33.0856   52.7489   11.4827 C   0  0  2  0  0  0  0  0  0  0  0  0
   31.5769   52.6403   11.7008 C   0  0  0  0  0  0  0  0  0  0  0  0
   30.9594   52.5014   10.4884 O   0  0  0  0  0  0  0  0  0  0  0  0
   29.2909   52.3632   10.5392 P   0  0  2  0  0  5  0  0  0  0  0  0
   28.7446   52.0328   11.8894 O   0  0  0  0  0  0  0  0  0  0  0  0
   28.8503   51.0850    9.5034 O   0  0  0  0  0  0  0  0  0  0  0  0
   28.4996   53.7431    9.9754 O   0  0  0  0  0  0  0  0  0  0  0  0
   29.2779   54.3920    8.6211 P   0  0  1  0  0  5  0  0  0  0  0  0
   30.3953   55.3010    9.0928 O   0  0  0  0  0  0  0  0  0  0  0  0
   29.9896   53.1926    7.6784 O   0  0  0  0  0  0  0  0  0  0  0  0
   28.2263   55.3576    7.7167 O   0  0  0  0  0  0  0  0  0  0  0  0
   29.1497   56.1789    6.5572 P   0  0  0  0  0  0  0  0  0  0  0  0
   29.4590   55.2830    5.3666 O   0  0  0  0  0  0  0  0  0  0  0  0
   30.6324   56.6613    7.2380 O   0  0  0  0  0  0  0  0  0  0  0  0
   28.3794   57.5597    5.9958 O   0  0  0  0  0  0  0  0  0  0  0  0
   33.4413   53.9757   10.6932 C   0  0  1  0  0  0  0  0  0  0  0  0
   34.6006   54.5257   11.2666 O   0  0  0  0  0  0  0  0  0  0  0  0
   33.7401   53.3823    9.3324 C   0  0  1  0  0  0  0  0  0  0  0  0
   34.7041   54.1797    8.6745 O   0  0  0  0  0  0  0  0  0  0  0  0
   35.5437   50.4199    8.3703 C   0  0  0  0  0  0  0  0  0  0  0  0
   36.6395   50.6549    8.9172 O   0  0  0  0  0  0  0  0  0  0  0  0
   35.4850   49.4926    7.2918 N   0  0  0  0  0  0  0  0  0  0  0  0
  1  2  1  0
  2  3  1  0
  3  4  1  0
  4  5  1  0
  6  5  1  6
  6  7  1  0
  7  8  1  0
  8  9  1  6
  9 10  1  0
 10 11  1  0
 11 12  2  0
 11 13  1  6
 11 14  1  0
 14 15  1  0
 15 16  2  0
 15 17  1  6
 15 18  1  0
 18 19  1  0
 19 20  2  0
 19 21  1  0
 19 22  1  0
  8 23  1  0
 23 24  1  1
 23 25  1  0
 25 26  1  1
  5 27  1  0
 27 28  2  0
 27 29  1  0
 29  2  1  0
 25  6  1  0
M  CHG  1   1   1
M  END
>  <shape_align_shape_tanimoto>  (3) 
0.60791473740446467

>  <shape_align_color_tanimoto>  (3) 
0.18054699719695128

>  <metric>  (3) 
combo

>  <metric_score>  (3) 
0.394

>  <template_pid>  (3) 
6E05

>  <template_shape_score>  (3) 
0.608

>  <template_color_score>  (3) 
0.181

>  <template_combo_score>  (3) 
0.394

$$$$
