4DHN_shape_pose
     RDKit          3D

 20 21  0  0  0  0  0  0  0  0999 V2000
    2.6489   41.1229  -10.6514 O   0  0  0  0  0  0  0  0  0  0  0  0
    2.5882   41.9172  -11.6450 C   0  0  0  0  0  0  0  0  0  0  0  0
    3.3402   41.5483  -12.8516 C   0  0  0  0  0  0  0  0  0  0  0  0
    3.1833   42.4841  -13.8792 O   0  0  0  0  0  0  0  0  0  0  0  0
    1.9706   42.6980  -14.4616 C   0  0  0  0  0  0  0  0  0  0  0  0
    0.7928   42.0550  -14.1632 C   0  0  0  0  0  0  0  0  0  0  0  0
   -0.4022   42.3089  -14.7870 C   0  0  0  0  0  0  0  0  0  0  0  0
   -0.4315   43.2763  -15.7848 C   0  0  0  0  0  0  0  0  0  0  0  0
    0.7174   43.9486  -16.1220 C   0  0  0  0  0  0  0  0  0  0  0  0
    1.9025   43.6619  -15.4678 C   0  0  0  0  0  0  0  0  0  0  0  0
    3.3565   44.5878  -15.9713 P   0  0  0  0  0  0  0  0  0  0  0  0
    3.7878   44.2567  -17.3733 O   0  0  0  0  0  0  0  0  0  0  0  0
    4.5859   44.2547  -14.8552 O   0  0  0  0  0  0  0  0  0  0  0  0
    2.9527   46.2338  -15.8369 O   0  0  0  0  0  0  0  0  0  0  0  0
    1.8019   43.0762  -11.4739 N   0  0  0  0  0  0  0  0  0  0  0  0
    1.0986   43.3247  -10.2280 C   0  0  0  0  0  0  0  0  0  0  0  0
    1.4765   44.7059   -9.7072 C   0  0  0  0  0  0  0  0  0  0  0  0
    0.8214   45.6075  -10.7164 C   0  0  0  0  0  0  0  0  0  0  0  0
   -0.4018   44.8989  -11.2286 C   0  0  0  0  0  0  0  0  0  0  0  0
   -0.3731   43.5473  -10.5455 C   0  0  0  0  0  0  0  0  0  0  0  0
  1  2  2  0
  2  3  1  0
  3  4  1  0
  4  5  1  0
  5  6  2  0
  6  7  1  0
  7  8  2  0
  8  9  1  0
  9 10  2  0
 10 11  1  0
 11 12  2  0
 11 13  1  0
 11 14  1  0
  2 15  1  0
 15 16  1  0
 16 17  1  0
 17 18  1  0
 18 19  1  0
 19 20  1  0
 10  5  1  0
 20 16  1  0
M  END
>  <shape_align_shape_tanimoto>  (1) 
0.15871157340265377

>  <shape_align_color_tanimoto>  (1) 
0.02177135194419616

>  <metric>  (1) 
shape

>  <metric_score>  (1) 
0.159

>  <template_pid>  (1) 
4DHN

>  <template_shape_score>  (1) 
0.159

>  <template_color_score>  (1) 
0.022

>  <template_combo_score>  (1) 
0.090

$$$$
4DHN_color_pose
     RDKit          3D

 20 21  0  0  0  0  0  0  0  0999 V2000
    0.2723   43.8312  -17.0515 O   0  0  0  0  0  0  0  0  0  0  0  0
    0.6511   43.9073  -15.8358 C   0  0  0  0  0  0  0  0  0  0  0  0
   -0.2821   43.4337  -14.8153 C   0  0  0  0  0  0  0  0  0  0  0  0
    0.1473   43.5091  -13.4886 O   0  0  0  0  0  0  0  0  0  0  0  0
    1.2268   42.8035  -13.0022 C   0  0  0  0  0  0  0  0  0  0  0  0
    2.0046   41.9374  -13.7288 C   0  0  0  0  0  0  0  0  0  0  0  0
    3.0678   41.2682  -13.1590 C   0  0  0  0  0  0  0  0  0  0  0  0
    3.4089   41.4303  -11.8315 C   0  0  0  0  0  0  0  0  0  0  0  0
    2.6321   42.3004  -11.0901 C   0  0  0  0  0  0  0  0  0  0  0  0
    1.5666   42.9707  -11.6621 C   0  0  0  0  0  0  0  0  0  0  0  0
    0.6433   44.0684  -10.5886 P   0  0  0  0  0  0  0  0  0  0  0  0
   -0.7107   44.4045  -11.1133 O   0  0  0  0  0  0  0  0  0  0  0  0
    1.4928   45.4999  -10.3004 O   0  0  0  0  0  0  0  0  0  0  0  0
    0.4646   43.3227   -9.0658 O   0  0  0  0  0  0  0  0  0  0  0  0
    1.9359   44.4471  -15.6166 N   0  0  0  0  0  0  0  0  0  0  0  0
    2.7598   44.8729  -16.7111 C   0  0  0  0  0  0  0  0  0  0  0  0
    4.0051   43.9806  -16.7604 C   0  0  0  0  0  0  0  0  0  0  0  0
    4.8174   44.5901  -15.6625 C   0  0  0  0  0  0  0  0  0  0  0  0
    4.6047   46.0801  -15.8685 C   0  0  0  0  0  0  0  0  0  0  0  0
    3.3177   46.2421  -16.6450 C   0  0  0  0  0  0  0  0  0  0  0  0
  1  2  2  0
  2  3  1  0
  3  4  1  0
  4  5  1  0
  5  6  2  0
  6  7  1  0
  7  8  2  0
  8  9  1  0
  9 10  2  0
 10 11  1  0
 11 12  2  0
 11 13  1  0
 11 14  1  0
  2 15  1  0
 15 16  1  0
 16 17  1  0
 17 18  1  0
 18 19  1  0
 19 20  1  0
 10  5  1  0
 20 16  1  0
M  END
>  <shape_align_shape_tanimoto>  (2) 
0.15478807096998781

>  <shape_align_color_tanimoto>  (2) 
0.038765116657904775

>  <metric>  (2) 
color

>  <metric_score>  (2) 
0.039

>  <template_pid>  (2) 
4DHN

>  <template_shape_score>  (2) 
0.155

>  <template_color_score>  (2) 
0.039

>  <template_combo_score>  (2) 
0.097

$$$$
4DHN_combo_pose
     RDKit          3D

 20 21  0  0  0  0  0  0  0  0999 V2000
    0.2723   43.8312  -17.0515 O   0  0  0  0  0  0  0  0  0  0  0  0
    0.6511   43.9073  -15.8358 C   0  0  0  0  0  0  0  0  0  0  0  0
   -0.2821   43.4337  -14.8153 C   0  0  0  0  0  0  0  0  0  0  0  0
    0.1473   43.5091  -13.4886 O   0  0  0  0  0  0  0  0  0  0  0  0
    1.2268   42.8035  -13.0022 C   0  0  0  0  0  0  0  0  0  0  0  0
    2.0046   41.9374  -13.7288 C   0  0  0  0  0  0  0  0  0  0  0  0
    3.0678   41.2682  -13.1590 C   0  0  0  0  0  0  0  0  0  0  0  0
    3.4089   41.4303  -11.8315 C   0  0  0  0  0  0  0  0  0  0  0  0
    2.6321   42.3004  -11.0901 C   0  0  0  0  0  0  0  0  0  0  0  0
    1.5666   42.9707  -11.6621 C   0  0  0  0  0  0  0  0  0  0  0  0
    0.6433   44.0684  -10.5886 P   0  0  0  0  0  0  0  0  0  0  0  0
   -0.7107   44.4045  -11.1133 O   0  0  0  0  0  0  0  0  0  0  0  0
    1.4928   45.4999  -10.3004 O   0  0  0  0  0  0  0  0  0  0  0  0
    0.4646   43.3227   -9.0658 O   0  0  0  0  0  0  0  0  0  0  0  0
    1.9359   44.4471  -15.6166 N   0  0  0  0  0  0  0  0  0  0  0  0
    2.7598   44.8729  -16.7111 C   0  0  0  0  0  0  0  0  0  0  0  0
    4.0051   43.9806  -16.7604 C   0  0  0  0  0  0  0  0  0  0  0  0
    4.8174   44.5901  -15.6625 C   0  0  0  0  0  0  0  0  0  0  0  0
    4.6047   46.0801  -15.8685 C   0  0  0  0  0  0  0  0  0  0  0  0
    3.3177   46.2421  -16.6450 C   0  0  0  0  0  0  0  0  0  0  0  0
  1  2  2  0
  2  3  1  0
  3  4  1  0
  4  5  1  0
  5  6  2  0
  6  7  1  0
  7  8  2  0
  8  9  1  0
  9 10  2  0
 10 11  1  0
 11 12  2  0
 11 13  1  0
 11 14  1  0
  2 15  1  0
 15 16  1  0
 16 17  1  0
 17 18  1  0
 18 19  1  0
 19 20  1  0
 10  5  1  0
 20 16  1  0
M  END
>  <shape_align_shape_tanimoto>  (3) 
0.15478807096998781

>  <shape_align_color_tanimoto>  (3) 
0.038765116657904775

>  <metric>  (3) 
combo

>  <metric_score>  (3) 
0.097

>  <template_pid>  (3) 
4DHN

>  <template_shape_score>  (3) 
0.155

>  <template_color_score>  (3) 
0.039

>  <template_combo_score>  (3) 
0.097

$$$$
