1MY2_shape_pose
     RDKit          3D

 13 13  0  0  0  0  0  0  0  0999 V2000
   19.4729   -1.7953   10.6677 C   0  0  0  0  0  0  0  0  0  0  0  0
   20.4258   -2.9294   10.5845 C   0  0  0  0  0  0  0  0  0  0  0  0
   20.2105   -4.0223    9.9033 O   0  0  0  0  0  0  0  0  0  0  0  0
   21.1983   -4.8402   10.0062 N   0  0  0  0  0  0  0  0  0  0  0  0
   22.1392   -4.2799   10.7987 C   0  0  0  0  0  0  0  0  0  0  0  0
   23.3221   -4.8978   11.1110 O   0  0  0  0  0  0  0  0  0  0  0  0
   21.6861   -3.0410   11.1972 C   0  0  0  0  0  0  0  0  0  0  0  0
   22.2423   -2.0102   12.0474 C   0  0  0  0  0  0  0  0  0  0  0  0
   23.6352   -2.0230   12.4596 C   0  0  2  0  0  0  0  0  0  0  0  0
   23.8095   -0.8357   13.3563 N   0  0  0  0  0  0  0  0  0  0  0  0
   24.5561   -1.6815   11.3122 C   0  0  0  0  0  0  0  0  0  0  0  0
   24.8414   -0.4549   11.0611 O   0  0  0  0  0  0  0  0  0  0  0  0
   25.1370   -2.6126   10.4900 O   0  0  0  0  0  0  0  0  0  0  0  0
  1  2  1  0
  2  3  1  0
  3  4  1  0
  4  5  2  0
  5  6  1  0
  5  7  1  0
  7  8  1  0
  8  9  1  0
  9 10  1  1
  9 11  1  0
 11 12  2  0
 11 13  1  0
  7  2  2  0
M  CHG  2  10   1  13  -1
M  END
>  <shape_align_shape_tanimoto>  (1) 
0.84592967393189722

>  <shape_align_color_tanimoto>  (1) 
0.12248832215961815

>  <metric>  (1) 
shape

>  <metric_score>  (1) 
0.846

>  <template_pid>  (1) 
1MY2

>  <template_shape_score>  (1) 
0.846

>  <template_color_score>  (1) 
0.122

>  <template_combo_score>  (1) 
0.484

$$$$
1MY2_color_pose
     RDKit          3D

 13 13  0  0  0  0  0  0  0  0999 V2000
   23.1168   -5.3392   10.9010 C   0  0  0  0  0  0  0  0  0  0  0  0
   22.0258   -4.3612   10.7286 C   0  0  0  0  0  0  0  0  0  0  0  0
   21.1121   -4.4967    9.7796 O   0  0  0  0  0  0  0  0  0  0  0  0
   20.2588   -3.5328    9.8268 N   0  0  0  0  0  0  0  0  0  0  0  0
   20.6063   -2.7041   10.8526 C   0  0  0  0  0  0  0  0  0  0  0  0
   19.8634   -1.5787   11.1436 O   0  0  0  0  0  0  0  0  0  0  0  0
   21.7488   -3.2065   11.4612 C   0  0  0  0  0  0  0  0  0  0  0  0
   22.4690   -2.5579   12.5507 C   0  0  0  0  0  0  0  0  0  0  0  0
   23.4096   -1.4645   12.2237 C   0  0  2  0  0  0  0  0  0  0  0  0
   22.6420   -0.3581   11.5954 N   0  0  0  0  0  0  0  0  0  0  0  0
   24.5206   -1.7014   11.3193 C   0  0  0  0  0  0  0  0  0  0  0  0
   24.7446   -2.6771   10.5780 O   0  0  0  0  0  0  0  0  0  0  0  0
   25.5015   -0.6841   11.2622 O   0  0  0  0  0  0  0  0  0  0  0  0
  1  2  1  0
  2  3  1  0
  3  4  1  0
  4  5  2  0
  5  6  1  0
  5  7  1  0
  7  8  1  0
  8  9  1  0
  9 10  1  6
  9 11  1  0
 11 12  2  0
 11 13  1  0
  7  2  2  0
M  CHG  2  10   1  13  -1
M  END
>  <shape_align_shape_tanimoto>  (2) 
0.84122889946080315

>  <shape_align_color_tanimoto>  (2) 
0.16899650217031004

>  <metric>  (2) 
color

>  <metric_score>  (2) 
0.169

>  <template_pid>  (2) 
1MY2

>  <template_shape_score>  (2) 
0.841

>  <template_color_score>  (2) 
0.169

>  <template_combo_score>  (2) 
0.505

$$$$
1MY2_combo_pose
     RDKit          3D

 13 13  0  0  0  0  0  0  0  0999 V2000
   23.1168   -5.3392   10.9010 C   0  0  0  0  0  0  0  0  0  0  0  0
   22.0258   -4.3612   10.7286 C   0  0  0  0  0  0  0  0  0  0  0  0
   21.1121   -4.4967    9.7796 O   0  0  0  0  0  0  0  0  0  0  0  0
   20.2588   -3.5328    9.8268 N   0  0  0  0  0  0  0  0  0  0  0  0
   20.6063   -2.7041   10.8526 C   0  0  0  0  0  0  0  0  0  0  0  0
   19.8634   -1.5787   11.1436 O   0  0  0  0  0  0  0  0  0  0  0  0
   21.7488   -3.2065   11.4612 C   0  0  0  0  0  0  0  0  0  0  0  0
   22.4690   -2.5579   12.5507 C   0  0  0  0  0  0  0  0  0  0  0  0
   23.4096   -1.4645   12.2237 C   0  0  2  0  0  0  0  0  0  0  0  0
   22.6420   -0.3581   11.5954 N   0  0  0  0  0  0  0  0  0  0  0  0
   24.5206   -1.7014   11.3193 C   0  0  0  0  0  0  0  0  0  0  0  0
   24.7446   -2.6771   10.5780 O   0  0  0  0  0  0  0  0  0  0  0  0
   25.5015   -0.6841   11.2622 O   0  0  0  0  0  0  0  0  0  0  0  0
  1  2  1  0
  2  3  1  0
  3  4  1  0
  4  5  2  0
  5  6  1  0
  5  7  1  0
  7  8  1  0
  8  9  1  0
  9 10  1  6
  9 11  1  0
 11 12  2  0
 11 13  1  0
  7  2  2  0
M  CHG  2  10   1  13  -1
M  END
>  <shape_align_shape_tanimoto>  (3) 
0.84122889946080315

>  <shape_align_color_tanimoto>  (3) 
0.16899650217031004

>  <metric>  (3) 
combo

>  <metric_score>  (3) 
0.505

>  <template_pid>  (3) 
1MY2

>  <template_shape_score>  (3) 
0.841

>  <template_color_score>  (3) 
0.169

>  <template_combo_score>  (3) 
0.505

$$$$
