4JIT_shape_pose
     RDKit          3D

 23 25  0  0  0  0  0  0  0  0999 V2000
   39.6515   24.0572   11.9900 N   0  0  0  0  0  0  0  0  0  0  0  0
   39.9606   25.4331   12.1716 C   0  0  0  0  0  0  0  0  0  0  0  0
   38.9943   26.3715   12.2283 N   0  0  0  0  0  0  0  0  0  0  0  0
   39.3162   27.6733   12.4016 C   0  0  0  0  0  0  0  0  0  0  0  0
   40.6621   28.0259   12.5204 C   0  0  0  0  0  0  0  0  0  0  0  0
   40.7393   29.3605   12.6830 N   0  0  0  0  0  0  0  0  0  0  0  0
   39.4702   29.8511   12.6688 C   0  0  0  0  0  0  0  0  0  0  0  0
   38.6026   28.8232   12.4974 N   0  0  0  0  0  0  0  0  0  0  0  0
   37.1579   28.8918   12.4226 C   0  0  1  0  0  0  0  0  0  0  0  0
   36.5774   27.9882   13.4821 C   0  0  0  0  0  0  0  0  0  0  0  0
   37.0395   28.6697   14.7293 C   0  0  0  0  0  0  0  0  0  0  0  0
   37.0555   30.1274   14.3709 N   0  0  0  0  0  0  0  0  0  0  0  0
   37.3929   31.0441   15.3795 C   0  0  0  0  0  0  0  0  0  0  0  0
   37.6910   30.4527   16.5156 O   0  0  0  0  0  0  0  0  0  0  0  0
   37.4744   32.4791   15.4124 C   0  0  0  0  0  0  0  0  0  0  0  0
   36.9602   33.4088   13.9619 P   0  0  0  0  0  0  0  0  0  0  0  0
   35.6479   32.9732   13.3886 O   0  0  0  0  0  0  0  0  0  0  0  0
   38.1894   33.5242   12.7876 O   0  0  0  0  0  0  0  0  0  0  0  0
   36.7041   35.0598   14.4268 O   0  0  0  0  0  0  0  0  0  0  0  0
   36.7068   30.2564   12.9824 C   0  0  0  0  0  0  0  0  0  0  0  0
   41.6151   27.0313   12.4561 C   0  0  0  0  0  0  0  0  0  0  0  0
   42.8235   27.3520   12.5630 O   0  0  0  0  0  0  0  0  0  0  0  0
   41.2710   25.7520   12.2842 N   0  0  0  0  0  0  0  0  0  0  0  0
  1  2  1  0
  2  3  2  0
  3  4  1  0
  4  5  2  0
  5  6  1  0
  6  7  2  0
  7  8  1  0
  9  8  1  1
  9 10  1  0
 10 11  1  0
 11 12  1  0
 12 13  1  0
 13 14  2  0
 13 15  1  0
 15 16  1  0
 16 17  2  0
 16 18  1  0
 16 19  1  0
 12 20  1  0
  5 21  1  0
 21 22  2  0
 21 23  1  0
 23  2  1  0
  8  4  1  0
 20  9  1  0
M  END
>  <shape_align_shape_tanimoto>  (1) 
0.63519462142529637

>  <shape_align_color_tanimoto>  (1) 
0.070620107625051859

>  <metric>  (1) 
shape

>  <metric_score>  (1) 
0.635

>  <template_pid>  (1) 
4JIT

>  <template_shape_score>  (1) 
0.635

>  <template_color_score>  (1) 
0.071

>  <template_combo_score>  (1) 
0.353

$$$$
4JIT_color_pose
     RDKit          3D

 23 25  0  0  0  0  0  0  0  0999 V2000
   44.7401   29.3026   12.8082 N   0  0  0  0  0  0  0  0  0  0  0  0
   43.7496   29.0133   13.7880 C   0  0  0  0  0  0  0  0  0  0  0  0
   42.4872   28.7328   13.3882 N   0  0  0  0  0  0  0  0  0  0  0  0
   41.4974   28.4498   14.2512 C   0  0  0  0  0  0  0  0  0  0  0  0
   41.7392   28.4348   15.6097 C   0  0  0  0  0  0  0  0  0  0  0  0
   40.5877   28.1264   16.2253 N   0  0  0  0  0  0  0  0  0  0  0  0
   39.6218   27.9457   15.2883 C   0  0  0  0  0  0  0  0  0  0  0  0
   40.1917   28.1463   14.0867 N   0  0  0  0  0  0  0  0  0  0  0  0
   39.5122   28.0506   12.8415 C   0  0  1  0  0  0  0  0  0  0  0  0
   39.1249   26.6797   12.3963 C   0  0  0  0  0  0  0  0  0  0  0  0
   38.0627   26.9660   11.3366 C   0  0  0  0  0  0  0  0  0  0  0  0
   37.7860   28.4046   11.4631 N   0  0  0  0  0  0  0  0  0  0  0  0
   37.2970   29.2880   10.4589 C   0  0  0  0  0  0  0  0  0  0  0  0
   37.1132   30.5067   10.7374 O   0  0  0  0  0  0  0  0  0  0  0  0
   37.0231   28.7223    9.1111 C   0  0  0  0  0  0  0  0  0  0  0  0
   36.4182   30.1000    8.0799 P   0  0  0  0  0  0  0  0  0  0  0  0
   35.7847   29.5534    6.7999 O   0  0  0  0  0  0  0  0  0  0  0  0
   37.6370   31.1481    7.6290 O   0  0  0  0  0  0  0  0  0  0  0  0
   35.2321   30.9935    8.9075 O   0  0  0  0  0  0  0  0  0  0  0  0
   38.1269   28.7098   12.8446 C   0  0  0  0  0  0  0  0  0  0  0  0
   43.0314   28.7222   16.0132 C   0  0  0  0  0  0  0  0  0  0  0  0
   43.2837   28.7161   17.2537 O   0  0  0  0  0  0  0  0  0  0  0  0
   44.0114   29.0050   15.1105 N   0  0  0  0  0  0  0  0  0  0  0  0
  1  2  1  0
  2  3  2  0
  3  4  1  0
  4  5  2  0
  5  6  1  0
  6  7  2  0
  7  8  1  0
  9  8  1  1
  9 10  1  0
 10 11  1  0
 11 12  1  0
 12 13  1  0
 13 14  2  0
 13 15  1  0
 15 16  1  0
 16 17  2  0
 16 18  1  0
 16 19  1  0
 12 20  1  0
  5 21  1  0
 21 22  2  0
 21 23  1  0
 23  2  1  0
  8  4  1  0
 20  9  1  0
M  END
>  <shape_align_shape_tanimoto>  (2) 
0.57277650946200265

>  <shape_align_color_tanimoto>  (2) 
0.10485403283132505

>  <metric>  (2) 
color

>  <metric_score>  (2) 
0.105

>  <template_pid>  (2) 
4JIT

>  <template_shape_score>  (2) 
0.573

>  <template_color_score>  (2) 
0.105

>  <template_combo_score>  (2) 
0.339

$$$$
4JIT_combo_pose
     RDKit          3D

 23 25  0  0  0  0  0  0  0  0999 V2000
   33.6071   25.5510   12.8051 N   0  0  0  0  0  0  0  0  0  0  0  0
   34.7655   25.7352   13.5960 C   0  0  0  0  0  0  0  0  0  0  0  0
   35.7984   26.4458   13.1013 N   0  0  0  0  0  0  0  0  0  0  0  0
   36.9336   26.6484   13.8326 C   0  0  0  0  0  0  0  0  0  0  0  0
   36.9460   26.0829   15.0917 C   0  0  0  0  0  0  0  0  0  0  0  0
   38.1373   26.3997   15.6309 N   0  0  0  0  0  0  0  0  0  0  0  0
   38.8293   27.1328   14.7337 C   0  0  0  0  0  0  0  0  0  0  0  0
   38.0843   27.2912   13.6114 N   0  0  0  0  0  0  0  0  0  0  0  0
   38.4571   28.0032   12.4377 C   0  0  1  0  0  0  0  0  0  0  0  0
   37.8394   29.3854   12.4515 C   0  0  0  0  0  0  0  0  0  0  0  0
   39.0030   30.2360   12.9466 C   0  0  0  0  0  0  0  0  0  0  0  0
   40.1277   29.6866   12.2279 N   0  0  0  0  0  0  0  0  0  0  0  0
   41.2115   30.3406   11.5855 C   0  0  0  0  0  0  0  0  0  0  0  0
   42.1123   29.6456   11.0233 O   0  0  0  0  0  0  0  0  0  0  0  0
   41.3335   31.8120   11.5457 C   0  0  0  0  0  0  0  0  0  0  0  0
   41.4980   32.4956   13.2084 P   0  0  0  0  0  0  0  0  0  0  0  0
   41.5164   31.4032   14.2791 O   0  0  0  0  0  0  0  0  0  0  0  0
   40.1932   33.5266   13.5110 O   0  0  0  0  0  0  0  0  0  0  0  0
   42.9809   33.3220   13.4152 O   0  0  0  0  0  0  0  0  0  0  0  0
   39.9250   28.2319   12.2799 C   0  0  0  0  0  0  0  0  0  0  0  0
   35.9143   25.3619   15.6098 C   0  0  0  0  0  0  0  0  0  0  0  0
   35.9878   24.8722   16.7645 O   0  0  0  0  0  0  0  0  0  0  0  0
   34.8196   25.1987   14.8339 N   0  0  0  0  0  0  0  0  0  0  0  0
  1  2  1  0
  2  3  2  0
  3  4  1  0
  4  5  2  0
  5  6  1  0
  6  7  2  0
  7  8  1  0
  9  8  1  1
  9 10  1  0
 10 11  1  0
 11 12  1  0
 12 13  1  0
 13 14  2  0
 13 15  1  0
 15 16  1  0
 16 17  2  0
 16 18  1  0
 16 19  1  0
 12 20  1  0
  5 21  1  0
 21 22  2  0
 21 23  1  0
 23  2  1  0
  8  4  1  0
 20  9  1  0
M  END
>  <shape_align_shape_tanimoto>  (3) 
0.62708155875210247

>  <shape_align_color_tanimoto>  (3) 
0.08116088671313483

>  <metric>  (3) 
combo

>  <metric_score>  (3) 
0.354

>  <template_pid>  (3) 
4JIT

>  <template_shape_score>  (3) 
0.627

>  <template_color_score>  (3) 
0.081

>  <template_combo_score>  (3) 
0.354

$$$$
