5CZM_shape_pose
     RDKit          3D

 52 55  0  0  0  0  0  0  0  0999 V2000
   -3.4298   50.2370   50.3738 N   0  0  0  0  0  0  0  0  0  0  0  0
   -3.4030   51.6384   50.5874 C   0  0  0  0  0  0  0  0  0  0  0  0
   -4.4818   52.2163   50.8763 O   0  0  0  0  0  0  0  0  0  0  0  0
   -2.1795   52.4806   50.4937 C   0  0  2  0  0  0  0  0  0  0  0  0
   -2.4190   53.6859   49.6457 C   0  0  0  0  0  0  0  0  0  0  0  0
   -1.2323   54.5805   49.5112 C   0  0  0  0  0  0  0  0  0  0  0  0
   -0.7452   55.1449   50.7847 C   0  0  0  0  0  0  0  0  0  0  0  0
   -1.2361   54.9676   51.9094 O   0  0  0  0  0  0  0  0  0  0  0  0
    0.3896   55.9649   50.7095 O   0  0  0  0  0  0  0  0  0  0  0  0
   -1.0030   51.7535   50.0654 N   0  0  0  0  0  0  0  0  0  0  0  0
   -0.9339   50.8567   48.9964 C   0  0  0  0  0  0  0  0  0  0  0  0
   -1.9699   50.6301   48.2758 O   0  0  0  0  0  0  0  0  0  0  0  0
    0.2781   50.0993   48.5855 C   0  0  2  0  0  0  0  0  0  0  0  0
   -0.0279   48.6859   48.2014 C   0  0  0  0  0  0  0  0  0  0  0  0
    1.2933   48.0118   47.8080 C   0  0  0  0  0  0  0  0  0  0  0  0
    1.8760   48.7527   46.6499 C   0  0  0  0  0  0  0  0  0  0  0  0
    1.1102   48.9307   45.6421 O   0  0  0  0  0  0  0  0  0  0  0  0
    3.2004   49.2358   46.6613 O   0  0  0  0  0  0  0  0  0  0  0  0
    1.4026   50.2393   49.4826 N   0  0  0  0  0  0  0  0  0  0  0  0
    1.2402   49.8025   50.8106 C   0  0  0  0  0  0  0  0  0  0  0  0
    0.0588   49.3088   51.0550 O   0  0  0  0  0  0  0  0  0  0  0  0
    2.1903   49.8228   51.9176 C   0  0  2  0  0  0  0  0  0  0  0  0
    2.6586   51.0818   52.5008 C   0  0  0  0  0  0  0  0  0  0  0  0
    3.4339   52.0312   51.7062 C   0  0  0  0  0  0  0  0  0  0  0  0
    3.8857   53.2461   52.2705 C   0  0  0  0  0  0  0  0  0  0  0  0
    4.5874   53.9385   51.3117 C   0  0  0  0  0  0  0  0  0  0  0  0
    5.2414   55.2287   51.4797 C   0  0  0  0  0  0  0  0  0  0  0  0
    5.1982   55.9329   52.6710 C   0  0  0  0  0  0  0  0  0  0  0  0
    5.8451   57.1489   52.8151 C   0  0  0  0  0  0  0  0  0  0  0  0
    6.5533   57.6743   51.7408 C   0  0  0  0  0  0  0  0  0  0  0  0
    7.2380   58.9552   51.9060 C   0  0  0  0  0  0  0  0  0  0  0  0
    7.4096   59.8520   50.8609 C   0  0  0  0  0  0  0  0  0  0  0  0
    8.0674   61.0616   51.0508 C   0  0  0  0  0  0  0  0  0  0  0  0
    8.5789   61.4145   52.2998 C   0  0  0  0  0  0  0  0  0  0  0  0
    8.4124   60.5245   53.3479 C   0  0  0  0  0  0  0  0  0  0  0  0
    9.0653   61.0086   54.8993 Cl  0  0  0  0  0  0  0  0  0  0  0  0
    7.7572   59.3234   53.1554 C   0  0  0  0  0  0  0  0  0  0  0  0
    6.5933   56.9601   50.5389 C   0  0  0  0  0  0  0  0  0  0  0  0
    5.9404   55.7478   50.4130 C   0  0  0  0  0  0  0  0  0  0  0  0
    4.5428   53.1448   50.2116 N   0  0  0  0  0  0  0  0  0  0  0  0
    3.8772   52.0755   50.4871 O   0  0  0  0  0  0  0  0  0  0  0  0
    3.3634   48.8572   51.6265 C   0  0  0  0  0  0  0  0  0  0  0  0
    4.5549   48.8610   52.9861 P   0  0  1  0  0  5  0  0  0  0  0  0
    5.6293   47.8033   52.7656 O   0  0  0  0  0  0  0  0  0  0  0  0
    5.3725   50.3212   53.1551 O   0  0  0  0  0  0  0  0  0  0  0  0
    3.6556   48.5407   54.5004 C   0  0  0  0  0  0  0  0  0  0  0  0
    3.9935   49.1821   55.6995 C   0  0  0  0  0  0  0  0  0  0  0  0
    3.3223   48.9449   56.8666 C   0  0  0  0  0  0  0  0  0  0  0  0
    2.2763   48.0415   56.8512 C   0  0  0  0  0  0  0  0  0  0  0  0
    1.3659   47.7377   58.5018 Br  0  0  0  0  0  0  0  0  0  0  0  0
    1.9301   47.4021   55.6842 C   0  0  0  0  0  0  0  0  0  0  0  0
    2.6096   47.6388   54.4949 C   0  0  0  0  0  0  0  0  0  0  0  0
  1  2  1  0
  2  3  2  0
  2  4  1  0
  4  5  1  6
  5  6  1  0
  6  7  1  0
  7  8  2  0
  7  9  1  0
  4 10  1  0
 10 11  1  0
 11 12  2  0
 11 13  1  0
 13 14  1  1
 14 15  1  0
 15 16  1  0
 16 17  2  0
 16 18  1  0
 13 19  1  0
 19 20  1  0
 20 21  2  0
 20 22  1  0
 22 23  1  6
 23 24  1  0
 24 25  2  0
 25 26  1  0
 26 27  1  0
 27 28  2  0
 28 29  1  0
 29 30  2  0
 30 31  1  0
 31 32  2  0
 32 33  1  0
 33 34  2  0
 34 35  1  0
 35 36  1  0
 35 37  2  0
 30 38  1  0
 38 39  2  0
 26 40  2  0
 40 41  1  0
 22 42  1  0
 42 43  1  0
 43 44  2  0
 43 45  1  1
 43 46  1  0
 46 47  2  0
 47 48  1  0
 48 49  2  0
 49 50  1  0
 49 51  1  0
 51 52  2  0
 41 24  1  0
 52 46  1  0
 39 27  1  0
 37 31  1  0
M  END
>  <shape_align_shape_tanimoto>  (1) 
0.45697356741582879

>  <shape_align_color_tanimoto>  (1) 
0.017895144145605744

>  <metric>  (1) 
shape

>  <metric_score>  (1) 
0.457

>  <template_pid>  (1) 
5CZM

>  <template_shape_score>  (1) 
0.457

>  <template_color_score>  (1) 
0.018

>  <template_combo_score>  (1) 
0.237

$$$$
5CZM_color_pose
     RDKit          3D

 52 55  0  0  0  0  0  0  0  0999 V2000
    1.2172   53.2706   47.8044 N   0  0  0  0  0  0  0  0  0  0  0  0
   -0.1050   52.7310   48.0042 C   0  0  0  0  0  0  0  0  0  0  0  0
   -1.0085   53.3755   47.3508 O   0  0  0  0  0  0  0  0  0  0  0  0
   -0.4054   51.5739   48.8495 C   0  0  2  0  0  0  0  0  0  0  0  0
   -1.5986   51.7505   49.7527 C   0  0  0  0  0  0  0  0  0  0  0  0
   -2.8973   52.0044   49.0488 C   0  0  0  0  0  0  0  0  0  0  0  0
   -3.9672   52.1490   50.0951 C   0  0  0  0  0  0  0  0  0  0  0  0
   -3.6088   52.0771   51.2899 O   0  0  0  0  0  0  0  0  0  0  0  0
   -5.3110   52.3543   49.7229 O   0  0  0  0  0  0  0  0  0  0  0  0
    0.7246   51.0349   49.5755 N   0  0  0  0  0  0  0  0  0  0  0  0
    1.6628   51.7922   50.3103 C   0  0  0  0  0  0  0  0  0  0  0  0
    1.5095   53.0654   50.3417 O   0  0  0  0  0  0  0  0  0  0  0  0
    2.8066   51.2701   51.0533 C   0  0  2  0  0  0  0  0  0  0  0  0
    4.0828   51.8730   50.6173 C   0  0  0  0  0  0  0  0  0  0  0  0
    4.2595   53.3369   50.7486 C   0  0  0  0  0  0  0  0  0  0  0  0
    4.1607   53.8718   52.1294 C   0  0  0  0  0  0  0  0  0  0  0  0
    3.2159   53.6006   52.9174 O   0  0  0  0  0  0  0  0  0  0  0  0
    5.1750   54.7388   52.6195 O   0  0  0  0  0  0  0  0  0  0  0  0
    2.9524   49.8054   51.0380 N   0  0  0  0  0  0  0  0  0  0  0  0
    2.3179   49.0290   52.0407 C   0  0  0  0  0  0  0  0  0  0  0  0
    1.6071   49.6903   52.8738 O   0  0  0  0  0  0  0  0  0  0  0  0
    2.4128   47.5753   52.1967 C   0  0  2  0  0  0  0  0  0  0  0  0
    3.7495   47.2317   52.9249 C   0  0  0  0  0  0  0  0  0  0  0  0
    3.6140   47.9411   54.2460 C   0  0  0  0  0  0  0  0  0  0  0  0
    3.0415   47.3813   55.3953 C   0  0  0  0  0  0  0  0  0  0  0  0
    3.0932   48.3388   56.4051 C   0  0  0  0  0  0  0  0  0  0  0  0
    2.5791   48.1565   57.7619 C   0  0  0  0  0  0  0  0  0  0  0  0
    2.0025   46.9306   58.1294 C   0  0  0  0  0  0  0  0  0  0  0  0
    1.5149   46.7848   59.4232 C   0  0  0  0  0  0  0  0  0  0  0  0
    1.6023   47.8300   60.3177 C   0  0  0  0  0  0  0  0  0  0  0  0
    1.0758   47.6244   61.6828 C   0  0  0  0  0  0  0  0  0  0  0  0
    1.1081   46.3828   62.2923 C   0  0  0  0  0  0  0  0  0  0  0  0
    0.6198   46.2473   63.5739 C   0  0  0  0  0  0  0  0  0  0  0  0
    0.1039   47.3174   64.2546 C   0  0  0  0  0  0  0  0  0  0  0  0
    0.0694   48.5574   63.6492 C   0  0  0  0  0  0  0  0  0  0  0  0
   -0.5662   49.9814   64.4428 Cl  0  0  0  0  0  0  0  0  0  0  0  0
    0.5590   48.7205   62.3488 C   0  0  0  0  0  0  0  0  0  0  0  0
    2.1767   49.0591   59.9597 C   0  0  0  0  0  0  0  0  0  0  0  0
    2.6642   49.2010   58.6609 C   0  0  0  0  0  0  0  0  0  0  0  0
    3.6797   49.4046   55.8397 N   0  0  0  0  0  0  0  0  0  0  0  0
    3.9762   49.1521   54.5779 O   0  0  0  0  0  0  0  0  0  0  0  0
    2.3030   46.7504   50.9616 C   0  0  0  0  0  0  0  0  0  0  0  0
    0.7683   46.8810   50.0569 P   0  0  1  0  0  5  0  0  0  0  0  0
    0.0787   45.5163   49.9330 O   0  0  0  0  0  0  0  0  0  0  0  0
   -0.3670   47.9003   50.7649 O   0  0  0  0  0  0  0  0  0  0  0  0
    1.1624   47.3906   48.3777 C   0  0  0  0  0  0  0  0  0  0  0  0
    2.4179   47.1485   47.8224 C   0  0  0  0  0  0  0  0  0  0  0  0
    2.7473   47.5407   46.5463 C   0  0  0  0  0  0  0  0  0  0  0  0
    1.8189   48.2022   45.7584 C   0  0  0  0  0  0  0  0  0  0  0  0
    2.2839   48.7407   43.9982 Br  0  0  0  0  0  0  0  0  0  0  0  0
    0.5766   48.4448   46.2982 C   0  0  0  0  0  0  0  0  0  0  0  0
    0.2532   48.0494   47.5769 C   0  0  0  0  0  0  0  0  0  0  0  0
  1  2  1  0
  2  3  2  0
  2  4  1  0
  4  5  1  1
  5  6  1  0
  6  7  1  0
  7  8  2  0
  7  9  1  0
  4 10  1  0
 10 11  1  0
 11 12  2  0
 11 13  1  0
 13 14  1  6
 14 15  1  0
 15 16  1  0
 16 17  2  0
 16 18  1  0
 13 19  1  0
 19 20  1  0
 20 21  2  0
 20 22  1  0
 22 23  1  6
 23 24  1  0
 24 25  2  0
 25 26  1  0
 26 27  1  0
 27 28  2  0
 28 29  1  0
 29 30  2  0
 30 31  1  0
 31 32  2  0
 32 33  1  0
 33 34  2  0
 34 35  1  0
 35 36  1  0
 35 37  2  0
 30 38  1  0
 38 39  2  0
 26 40  2  0
 40 41  1  0
 22 42  1  0
 42 43  1  0
 43 44  2  0
 43 45  1  1
 43 46  1  0
 46 47  2  0
 47 48  1  0
 48 49  2  0
 49 50  1  0
 49 51  1  0
 51 52  2  0
 41 24  1  0
 52 46  1  0
 39 27  1  0
 37 31  1  0
M  END
>  <shape_align_shape_tanimoto>  (2) 
0.40044191043617461

>  <shape_align_color_tanimoto>  (2) 
0.073855260295566702

>  <metric>  (2) 
color

>  <metric_score>  (2) 
0.074

>  <template_pid>  (2) 
5CZM

>  <template_shape_score>  (2) 
0.400

>  <template_color_score>  (2) 
0.074

>  <template_combo_score>  (2) 
0.237

$$$$
5CZM_combo_pose
     RDKit          3D

 52 55  0  0  0  0  0  0  0  0999 V2000
   -5.0255   52.9798   48.9008 N   0  0  0  0  0  0  0  0  0  0  0  0
   -4.1204   52.5019   49.8951 C   0  0  0  0  0  0  0  0  0  0  0  0
   -3.8261   53.1612   50.9215 O   0  0  0  0  0  0  0  0  0  0  0  0
   -3.5057   51.1244   49.6619 C   0  0  2  0  0  0  0  0  0  0  0  0
   -4.6032   50.1741   49.3859 C   0  0  0  0  0  0  0  0  0  0  0  0
   -4.2548   48.7562   49.1188 C   0  0  0  0  0  0  0  0  0  0  0  0
   -3.5618   48.1379   50.2671 C   0  0  0  0  0  0  0  0  0  0  0  0
   -2.3211   48.0012   50.3683 O   0  0  0  0  0  0  0  0  0  0  0  0
   -4.3132   47.6522   51.3533 O   0  0  0  0  0  0  0  0  0  0  0  0
   -2.6307   50.8174   50.7501 N   0  0  0  0  0  0  0  0  0  0  0  0
   -1.1917   50.9411   50.6484 C   0  0  0  0  0  0  0  0  0  0  0  0
   -0.6656   51.3362   49.5606 O   0  0  0  0  0  0  0  0  0  0  0  0
   -0.4219   50.5910   51.8444 C   0  0  2  0  0  0  0  0  0  0  0  0
   -0.8907   51.3910   53.0687 C   0  0  0  0  0  0  0  0  0  0  0  0
   -0.0068   50.9177   54.2148 C   0  0  0  0  0  0  0  0  0  0  0  0
   -0.3453   51.6028   55.4871 C   0  0  0  0  0  0  0  0  0  0  0  0
   -1.2771   52.4752   55.5462 O   0  0  0  0  0  0  0  0  0  0  0  0
    0.3959   51.2526   56.6073 O   0  0  0  0  0  0  0  0  0  0  0  0
    1.0103   50.7247   51.6692 N   0  0  0  0  0  0  0  0  0  0  0  0
    1.8913   49.6466   51.9011 C   0  0  0  0  0  0  0  0  0  0  0  0
    1.3121   48.5607   52.2861 O   0  0  0  0  0  0  0  0  0  0  0  0
    3.3251   49.6097   51.7692 C   0  0  2  0  0  0  0  0  0  0  0  0
    4.0491   48.5243   52.5296 C   0  0  0  0  0  0  0  0  0  0  0  0
    3.8698   48.5602   53.9907 C   0  0  0  0  0  0  0  0  0  0  0  0
    2.9425   47.9464   54.8042 C   0  0  0  0  0  0  0  0  0  0  0  0
    3.2007   48.2968   56.1144 C   0  0  0  0  0  0  0  0  0  0  0  0
    2.4371   47.8515   57.2741 C   0  0  0  0  0  0  0  0  0  0  0  0
    2.7304   48.2308   58.5668 C   0  0  0  0  0  0  0  0  0  0  0  0
    1.9604   47.7684   59.6423 C   0  0  0  0  0  0  0  0  0  0  0  0
    0.8917   46.9252   59.4460 C   0  0  0  0  0  0  0  0  0  0  0  0
    0.0459   46.4118   60.5085 C   0  0  0  0  0  0  0  0  0  0  0  0
   -1.2936   46.1440   60.2509 C   0  0  0  0  0  0  0  0  0  0  0  0
   -2.1629   45.6618   61.1860 C   0  0  0  0  0  0  0  0  0  0  0  0
   -1.7263   45.4097   62.4824 C   0  0  0  0  0  0  0  0  0  0  0  0
   -0.3915   45.6688   62.7666 C   0  0  0  0  0  0  0  0  0  0  0  0
    0.1558   45.3526   64.4039 Cl  0  0  0  0  0  0  0  0  0  0  0  0
    0.4787   46.1625   61.7913 C   0  0  0  0  0  0  0  0  0  0  0  0
    0.5945   46.5426   58.1545 C   0  0  0  0  0  0  0  0  0  0  0  0
    1.3616   47.0060   57.1050 C   0  0  0  0  0  0  0  0  0  0  0  0
    4.2726   49.1080   56.0498 N   0  0  0  0  0  0  0  0  0  0  0  0
    4.6602   49.2588   54.8050 O   0  0  0  0  0  0  0  0  0  0  0  0
    4.1292   50.8397   51.6772 C   0  0  0  0  0  0  0  0  0  0  0  0
    3.8683   51.9071   50.2710 P   0  0  1  0  0  5  0  0  0  0  0  0
    5.1665   52.0923   49.4680 O   0  0  0  0  0  0  0  0  0  0  0  0
    2.7354   51.3754   49.1658 O   0  0  0  0  0  0  0  0  0  0  0  0
    3.4257   53.5417   50.8214 C   0  0  0  0  0  0  0  0  0  0  0  0
    4.2909   54.2119   51.6786 C   0  0  0  0  0  0  0  0  0  0  0  0
    4.0119   55.4852   52.1360 C   0  0  0  0  0  0  0  0  0  0  0  0
    2.8497   56.1568   51.7596 C   0  0  0  0  0  0  0  0  0  0  0  0
    2.4646   57.8979   52.3832 Br  0  0  0  0  0  0  0  0  0  0  0  0
    2.0043   55.4624   50.9032 C   0  0  0  0  0  0  0  0  0  0  0  0
    2.2781   54.1949   50.4453 C   0  0  0  0  0  0  0  0  0  0  0  0
  1  2  1  0
  2  3  2  0
  2  4  1  0
  4  5  1  1
  5  6  1  0
  6  7  1  0
  7  8  2  0
  7  9  1  0
  4 10  1  0
 10 11  1  0
 11 12  2  0
 11 13  1  0
 13 14  1  1
 14 15  1  0
 15 16  1  0
 16 17  2  0
 16 18  1  0
 13 19  1  0
 19 20  1  0
 20 21  2  0
 20 22  1  0
 22 23  1  1
 23 24  1  0
 24 25  2  0
 25 26  1  0
 26 27  1  0
 27 28  2  0
 28 29  1  0
 29 30  2  0
 30 31  1  0
 31 32  2  0
 32 33  1  0
 33 34  2  0
 34 35  1  0
 35 36  1  0
 35 37  2  0
 30 38  1  0
 38 39  2  0
 26 40  2  0
 40 41  1  0
 22 42  1  0
 42 43  1  0
 43 44  2  0
 43 45  1  6
 43 46  1  0
 46 47  2  0
 47 48  1  0
 48 49  2  0
 49 50  1  0
 49 51  1  0
 51 52  2  0
 41 24  1  0
 52 46  1  0
 39 27  1  0
 37 31  1  0
M  END
>  <shape_align_shape_tanimoto>  (3) 
0.42757547047758615

>  <shape_align_color_tanimoto>  (3) 
0.061459023362301288

>  <metric>  (3) 
combo

>  <metric_score>  (3) 
0.245

>  <template_pid>  (3) 
5CZM

>  <template_shape_score>  (3) 
0.428

>  <template_color_score>  (3) 
0.061

>  <template_combo_score>  (3) 
0.245

$$$$
