5MB1_shape_pose
     RDKit          3D

 14 14  0  0  0  0  0  0  0  0999 V2000
   40.4440    3.1717   -3.5676 C   0  0  0  0  0  0  0  0  0  0  0  0
   39.4104    4.0537   -3.0646 N   0  0  0  0  0  0  0  0  0  0  0  0
   38.6040    4.7564   -4.4150 S   0  0  0  0  0  0  0  0  0  0  0  0
   37.8509    3.6747   -5.1303 O   0  0  0  0  0  0  0  0  0  0  0  0
   37.5049    5.6511   -3.8393 O   0  0  0  0  0  0  0  0  0  0  0  0
   39.6238    5.7146   -5.4242 C   0  0  0  0  0  0  0  0  0  0  0  0
   40.3386    5.2408   -6.5010 C   0  0  0  0  0  0  0  0  0  0  0  0
   40.3087    3.8349   -6.9034 C   0  0  0  0  0  0  0  0  0  0  0  0
   41.1412    6.0993   -7.2656 C   0  0  0  0  0  0  0  0  0  0  0  0
   41.2521    7.4417   -6.9797 C   0  0  0  0  0  0  0  0  0  0  0  0
   42.0960    8.3719   -7.7749 C   0  0  0  0  0  0  0  0  0  0  0  0
   40.5368    7.9141   -5.9023 C   0  0  0  0  0  0  0  0  0  0  0  0
   39.7284    7.0804   -5.1223 C   0  0  0  0  0  0  0  0  0  0  0  0
   38.9927    7.6704   -3.9763 C   0  0  0  0  0  0  0  0  0  0  0  0
  1  2  1  0
  2  3  1  0
  3  4  2  0
  3  5  2  0
  3  6  1  0
  6  7  2  0
  7  8  1  0
  7  9  1  0
  9 10  2  0
 10 11  1  0
 10 12  1  0
 12 13  2  0
 13 14  1  0
 13  6  1  0
M  END
>  <shape_align_shape_tanimoto>  (1) 
0.45014864934100457

>  <shape_align_color_tanimoto>  (1) 
0.045257748060449347

>  <metric>  (1) 
shape

>  <metric_score>  (1) 
0.450

>  <template_pid>  (1) 
5MB1

>  <template_shape_score>  (1) 
0.450

>  <template_color_score>  (1) 
0.045

>  <template_combo_score>  (1) 
0.248

$$$$
5MB1_color_pose
     RDKit          3D

 14 14  0  0  0  0  0  0  0  0999 V2000
   43.7596    5.5777   -7.2449 C   0  0  0  0  0  0  0  0  0  0  0  0
   43.1494    6.8615   -7.3367 N   0  0  0  0  0  0  0  0  0  0  0  0
   41.4680    6.8415   -7.6990 S   0  0  0  0  0  0  0  0  0  0  0  0
   41.2508    6.3323   -9.1056 O   0  0  0  0  0  0  0  0  0  0  0  0
   41.0653    8.3101   -7.7995 O   0  0  0  0  0  0  0  0  0  0  0  0
   40.5257    6.0397   -6.5050 C   0  0  0  0  0  0  0  0  0  0  0  0
   40.2015    4.6900   -6.5324 C   0  0  0  0  0  0  0  0  0  0  0  0
   40.6677    3.8595   -7.6439 C   0  0  0  0  0  0  0  0  0  0  0  0
   39.4314    4.1448   -5.5007 C   0  0  0  0  0  0  0  0  0  0  0  0
   38.9749    4.8980   -4.4461 C   0  0  0  0  0  0  0  0  0  0  0  0
   38.1591    4.2641   -3.3765 C   0  0  0  0  0  0  0  0  0  0  0  0
   39.2935    6.2246   -4.4194 C   0  0  0  0  0  0  0  0  0  0  0  0
   40.0560    6.7967   -5.4272 C   0  0  0  0  0  0  0  0  0  0  0  0
   40.3617    8.2345   -5.3307 C   0  0  0  0  0  0  0  0  0  0  0  0
  1  2  1  0
  2  3  1  0
  3  4  2  0
  3  5  2  0
  3  6  1  0
  6  7  2  0
  7  8  1  0
  7  9  1  0
  9 10  2  0
 10 11  1  0
 10 12  1  0
 12 13  2  0
 13 14  1  0
 13  6  1  0
M  END
>  <shape_align_shape_tanimoto>  (2) 
0.40597149503143243

>  <shape_align_color_tanimoto>  (2) 
0.072338675618409079

>  <metric>  (2) 
color

>  <metric_score>  (2) 
0.072

>  <template_pid>  (2) 
5MB1

>  <template_shape_score>  (2) 
0.406

>  <template_color_score>  (2) 
0.072

>  <template_combo_score>  (2) 
0.239

$$$$
5MB1_combo_pose
     RDKit          3D

 14 14  0  0  0  0  0  0  0  0999 V2000
   44.0287    8.0757   -7.0195 C   0  0  0  0  0  0  0  0  0  0  0  0
   42.9735    9.0282   -7.0144 N   0  0  0  0  0  0  0  0  0  0  0  0
   41.4884    8.4488   -7.6810 S   0  0  0  0  0  0  0  0  0  0  0  0
   41.8196    8.1224   -9.1190 O   0  0  0  0  0  0  0  0  0  0  0  0
   40.4754    9.5704   -7.7197 O   0  0  0  0  0  0  0  0  0  0  0  0
   40.8536    7.1077   -6.7956 C   0  0  0  0  0  0  0  0  0  0  0  0
   40.0316    7.3873   -5.7094 C   0  0  0  0  0  0  0  0  0  0  0  0
   39.7345    8.7956   -5.3450 C   0  0  0  0  0  0  0  0  0  0  0  0
   39.4619    6.4054   -4.9299 C   0  0  0  0  0  0  0  0  0  0  0  0
   39.6974    5.0775   -5.2128 C   0  0  0  0  0  0  0  0  0  0  0  0
   39.1027    3.9823   -4.3974 C   0  0  0  0  0  0  0  0  0  0  0  0
   40.5072    4.7956   -6.2832 C   0  0  0  0  0  0  0  0  0  0  0  0
   41.0876    5.7881   -7.0773 C   0  0  0  0  0  0  0  0  0  0  0  0
   41.9397    5.4295   -8.2170 C   0  0  0  0  0  0  0  0  0  0  0  0
  1  2  1  0
  2  3  1  0
  3  4  2  0
  3  5  2  0
  3  6  1  0
  6  7  2  0
  7  8  1  0
  7  9  1  0
  9 10  2  0
 10 11  1  0
 10 12  1  0
 12 13  2  0
 13 14  1  0
 13  6  1  0
M  END
>  <shape_align_shape_tanimoto>  (3) 
0.43946872413354704

>  <shape_align_color_tanimoto>  (3) 
0.070108331580832309

>  <metric>  (3) 
combo

>  <metric_score>  (3) 
0.255

>  <template_pid>  (3) 
5MB1

>  <template_shape_score>  (3) 
0.439

>  <template_color_score>  (3) 
0.070

>  <template_combo_score>  (3) 
0.255

$$$$
