6QW8_shape_pose
     RDKit          3D

 23 24  0  0  0  0  0  0  0  0999 V2000
   33.7082   62.7758    4.5140 O   0  0  0  0  0  0  0  0  0  0  0  0
   33.7133   63.8801    3.9308 C   0  0  0  0  0  0  0  0  0  0  0  0
   33.3874   63.9966    2.5639 N   0  0  0  0  0  0  0  0  0  0  0  0
   33.0317   62.8299    1.7791 C   0  0  0  0  0  0  0  0  0  0  0  0
   34.1298   62.6331    0.7515 C   0  0  2  0  0  0  0  0  0  0  0  0
   35.1915   61.8904    1.4077 N   0  0  0  0  0  0  0  0  0  0  0  0
   34.5928   60.9528    2.1658 O   0  0  0  0  0  0  0  0  0  0  0  0
   35.6123   60.2216    3.2531 S   0  0  0  0  0  0  0  0  0  0  0  0
   34.8876   59.9085    4.5362 O   0  0  0  0  0  0  0  0  0  0  0  0
   36.0040   58.8789    2.6748 O   0  0  0  0  0  0  0  0  0  0  0  0
   36.9937   61.1113    3.5669 O   0  0  0  0  0  0  0  0  0  0  0  0
   34.5740   63.9675    0.2421 C   0  0  0  0  0  0  0  0  0  0  0  0
   33.4661   64.9890    0.4146 C   0  0  0  0  0  0  0  0  0  0  0  0
   33.3999   65.2889    1.9068 C   0  0  1  0  0  0  0  0  0  0  0  0
   32.2282   66.1186    2.2614 C   0  0  0  0  0  0  0  0  0  0  0  0
   32.1313   67.2684    1.7478 O   0  0  0  0  0  0  0  0  0  0  0  0
   31.2588   65.6035    3.1581 N   0  0  0  0  0  0  0  0  0  0  0  0
   30.0767   66.3435    3.5645 C   0  0  0  0  0  0  0  0  0  0  0  0
   30.2278   66.5497    5.0646 C   0  0  0  0  0  0  0  0  0  0  0  0
   30.3160   65.2331    5.7906 C   0  0  0  0  0  0  0  0  0  0  0  0
   29.3439   64.2779    5.3894 N   0  0  0  0  0  0  0  0  0  0  0  0
   28.9902   64.2240    4.0196 C   0  0  0  0  0  0  0  0  0  0  0  0
   28.7964   65.5644    3.3810 C   0  0  0  0  0  0  0  0  0  0  0  0
  1  2  2  0
  2  3  1  0
  3  4  1  0
  4  5  1  0
  5  6  1  1
  6  7  1  0
  7  8  1  0
  8  9  2  0
  8 10  2  0
  8 11  1  0
  5 12  1  0
 12 13  1  0
 13 14  1  0
 14 15  1  6
 15 16  2  0
 15 17  1  0
 17 18  1  0
 18 19  1  0
 19 20  1  0
 20 21  1  0
 21 22  1  0
 22 23  1  0
 14  3  1  0
 23 18  1  0
M  CHG  3   6   1  11  -1  21   1
M  END
>  <shape_align_shape_tanimoto>  (1) 
0.62402430419272037

>  <shape_align_color_tanimoto>  (1) 
0.054438002715686648

>  <metric>  (1) 
shape

>  <metric_score>  (1) 
0.624

>  <template_pid>  (1) 
6QW8

>  <template_shape_score>  (1) 
0.624

>  <template_color_score>  (1) 
0.054

>  <template_combo_score>  (1) 
0.339

$$$$
6QW8_color_pose
     RDKit          3D

 23 24  0  0  0  0  0  0  0  0999 V2000
   29.7312   63.6013    6.9581 O   0  0  0  0  0  0  0  0  0  0  0  0
   30.8344   63.1645    6.4991 C   0  0  0  0  0  0  0  0  0  0  0  0
   31.2796   63.7160    5.2867 N   0  0  0  0  0  0  0  0  0  0  0  0
   30.4452   64.7551    4.6487 C   0  0  0  0  0  0  0  0  0  0  0  0
   31.2855   65.9586    4.2996 C   0  0  2  0  0  0  0  0  0  0  0  0
   30.6978   66.5366    3.0913 N   0  0  0  0  0  0  0  0  0  0  0  0
   31.2520   65.9838    1.9820 O   0  0  0  0  0  0  0  0  0  0  0  0
   31.5071   67.1984    0.8738 S   0  0  0  0  0  0  0  0  0  0  0  0
   32.4937   66.7637   -0.1911 O   0  0  0  0  0  0  0  0  0  0  0  0
   30.2372   67.6230    0.1956 O   0  0  0  0  0  0  0  0  0  0  0  0
   32.1517   68.5558    1.6444 O   0  0  0  0  0  0  0  0  0  0  0  0
   32.7133   65.7030    4.0124 C   0  0  0  0  0  0  0  0  0  0  0  0
   33.3756   64.5970    4.7699 C   0  0  0  0  0  0  0  0  0  0  0  0
   32.4889   63.3814    4.5809 C   0  0  1  0  0  0  0  0  0  0  0  0
   33.0995   62.0990    4.8827 C   0  0  0  0  0  0  0  0  0  0  0  0
   32.6593   61.2261    5.6726 O   0  0  0  0  0  0  0  0  0  0  0  0
   34.3315   61.7711    4.2252 N   0  0  0  0  0  0  0  0  0  0  0  0
   34.9799   60.5217    4.4827 C   0  0  0  0  0  0  0  0  0  0  0  0
   34.8865   59.7065    3.2107 C   0  0  0  0  0  0  0  0  0  0  0  0
   35.8115   60.3402    2.2012 C   0  0  0  0  0  0  0  0  0  0  0  0
   37.1699   60.0931    2.6547 N   0  0  0  0  0  0  0  0  0  0  0  0
   37.4297   60.7831    3.9024 C   0  0  0  0  0  0  0  0  0  0  0  0
   36.3794   60.5386    4.9332 C   0  0  0  0  0  0  0  0  0  0  0  0
  1  2  2  0
  2  3  1  0
  3  4  1  0
  4  5  1  0
  5  6  1  6
  6  7  1  0
  7  8  1  0
  8  9  2  0
  8 10  2  0
  8 11  1  0
  5 12  1  0
 12 13  1  0
 13 14  1  0
 14 15  1  1
 15 16  2  0
 15 17  1  0
 17 18  1  0
 18 19  1  0
 19 20  1  0
 20 21  1  0
 21 22  1  0
 22 23  1  0
 14  3  1  0
 23 18  1  0
M  CHG  3   6   1  11  -1  21   1
M  END
>  <shape_align_shape_tanimoto>  (2) 
0.47148745491387395

>  <shape_align_color_tanimoto>  (2) 
0.097233460031881117

>  <metric>  (2) 
color

>  <metric_score>  (2) 
0.097

>  <template_pid>  (2) 
6QW8

>  <template_shape_score>  (2) 
0.471

>  <template_color_score>  (2) 
0.097

>  <template_combo_score>  (2) 
0.284

$$$$
6QW8_combo_pose
     RDKit          3D

 23 24  0  0  0  0  0  0  0  0999 V2000
   33.7082   62.7758    4.5140 O   0  0  0  0  0  0  0  0  0  0  0  0
   33.7133   63.8801    3.9308 C   0  0  0  0  0  0  0  0  0  0  0  0
   33.3874   63.9966    2.5639 N   0  0  0  0  0  0  0  0  0  0  0  0
   33.0317   62.8299    1.7791 C   0  0  0  0  0  0  0  0  0  0  0  0
   34.1298   62.6331    0.7515 C   0  0  2  0  0  0  0  0  0  0  0  0
   35.1915   61.8904    1.4077 N   0  0  0  0  0  0  0  0  0  0  0  0
   34.5928   60.9528    2.1658 O   0  0  0  0  0  0  0  0  0  0  0  0
   35.6123   60.2216    3.2531 S   0  0  0  0  0  0  0  0  0  0  0  0
   34.8876   59.9085    4.5362 O   0  0  0  0  0  0  0  0  0  0  0  0
   36.0040   58.8789    2.6748 O   0  0  0  0  0  0  0  0  0  0  0  0
   36.9937   61.1113    3.5669 O   0  0  0  0  0  0  0  0  0  0  0  0
   34.5740   63.9675    0.2421 C   0  0  0  0  0  0  0  0  0  0  0  0
   33.4661   64.9890    0.4146 C   0  0  0  0  0  0  0  0  0  0  0  0
   33.3999   65.2889    1.9068 C   0  0  1  0  0  0  0  0  0  0  0  0
   32.2282   66.1186    2.2614 C   0  0  0  0  0  0  0  0  0  0  0  0
   32.1313   67.2684    1.7478 O   0  0  0  0  0  0  0  0  0  0  0  0
   31.2588   65.6035    3.1581 N   0  0  0  0  0  0  0  0  0  0  0  0
   30.0767   66.3435    3.5645 C   0  0  0  0  0  0  0  0  0  0  0  0
   30.2278   66.5497    5.0646 C   0  0  0  0  0  0  0  0  0  0  0  0
   30.3160   65.2331    5.7906 C   0  0  0  0  0  0  0  0  0  0  0  0
   29.3439   64.2779    5.3894 N   0  0  0  0  0  0  0  0  0  0  0  0
   28.9902   64.2240    4.0196 C   0  0  0  0  0  0  0  0  0  0  0  0
   28.7964   65.5644    3.3810 C   0  0  0  0  0  0  0  0  0  0  0  0
  1  2  2  0
  2  3  1  0
  3  4  1  0
  4  5  1  0
  5  6  1  1
  6  7  1  0
  7  8  1  0
  8  9  2  0
  8 10  2  0
  8 11  1  0
  5 12  1  0
 12 13  1  0
 13 14  1  0
 14 15  1  6
 15 16  2  0
 15 17  1  0
 17 18  1  0
 18 19  1  0
 19 20  1  0
 20 21  1  0
 21 22  1  0
 22 23  1  0
 14  3  1  0
 23 18  1  0
M  CHG  3   6   1  11  -1  21   1
M  END
>  <shape_align_shape_tanimoto>  (3) 
0.62402430419272037

>  <shape_align_color_tanimoto>  (3) 
0.054438002715686648

>  <metric>  (3) 
combo

>  <metric_score>  (3) 
0.339

>  <template_pid>  (3) 
6QW8

>  <template_shape_score>  (3) 
0.624

>  <template_color_score>  (3) 
0.054

>  <template_combo_score>  (3) 
0.339

$$$$
