3DNJ_shape_pose
     RDKit          3D

 26 26  0  0  0  0  0  0  0  0999 V2000
    4.8628    4.9171    0.8556 C   0  0  0  0  0  0  0  0  0  0  0  0
    5.1381    3.8348    1.9015 C   0  0  0  0  0  0  0  0  0  0  0  0
    4.8905    2.4934    1.2225 C   0  0  0  0  0  0  0  0  0  0  0  0
    6.5308    3.9230    2.4373 C   0  0  0  0  0  0  0  0  0  0  0  0
    6.7987    5.2572    3.1090 C   0  0  2  0  0  0  0  0  0  0  0  0
    8.2228    5.2355    3.5830 N   0  0  0  0  0  0  0  0  0  0  0  0
    9.2646    5.7616    2.7849 C   0  0  0  0  0  0  0  0  0  0  0  0
    8.9401    6.2372    1.6352 O   0  0  0  0  0  0  0  0  0  0  0  0
   10.6735    5.7804    3.2189 C   0  0  1  0  0  0  0  0  0  0  0  0
   10.7557    5.7769    4.6946 N   0  0  0  0  0  0  0  0  0  0  0  0
   11.4202    4.5004    2.8410 C   0  0  0  0  0  0  0  0  0  0  0  0
   11.4811    4.1899    1.4188 C   0  0  0  0  0  0  0  0  0  0  0  0
   10.4538    3.4044    0.8798 C   0  0  0  0  0  0  0  0  0  0  0  0
   10.4512    3.0363   -0.4580 C   0  0  0  0  0  0  0  0  0  0  0  0
   11.5074    3.4677   -1.2753 C   0  0  0  0  0  0  0  0  0  0  0  0
   11.5114    3.0978   -2.6339 O   0  0  0  0  0  0  0  0  0  0  0  0
   12.5163    4.2439   -0.7380 C   0  0  0  0  0  0  0  0  0  0  0  0
   12.5138    4.6078    0.5978 C   0  0  0  0  0  0  0  0  0  0  0  0
    5.9514    5.5560    4.2712 C   0  0  0  0  0  0  0  0  0  0  0  0
    6.5452    5.4715    5.4098 O   0  0  0  0  0  0  0  0  0  0  0  0
    4.6071    5.9242    4.2968 N   0  0  0  0  0  0  0  0  0  0  0  0
    3.9661    6.1671    5.6052 C   0  0  1  0  0  0  0  0  0  0  0  0
    3.6266    7.6455    5.5851 C   0  0  0  0  0  0  0  0  0  0  0  0
    2.7712    5.3157    5.7682 C   0  0  0  0  0  0  0  0  0  0  0  0
    1.6194    5.8421    5.6039 O   0  0  0  0  0  0  0  0  0  0  0  0
    2.9407    3.9793    6.0899 O   0  0  0  0  0  0  0  0  0  0  0  0
  1  2  1  0
  2  3  1  0
  2  4  1  0
  5  4  1  1
  5  6  1  0
  6  7  1  0
  7  8  2  0
  7  9  1  0
  9 10  1  1
  9 11  1  0
 11 12  1  0
 12 13  2  0
 13 14  1  0
 14 15  2  0
 15 16  1  0
 15 17  1  0
 17 18  2  0
  5 19  1  0
 19 20  2  0
 19 21  1  0
 21 22  1  0
 22 23  1  6
 22 24  1  0
 24 25  2  0
 24 26  1  0
 18 12  1  0
M  CHG  2  10   1  26  -1
M  END
>  <shape_align_shape_tanimoto>  (1) 
0.24717881768553066

>  <shape_align_color_tanimoto>  (1) 
0.040408668789056232

>  <metric>  (1) 
shape

>  <metric_score>  (1) 
0.247

>  <template_pid>  (1) 
3DNJ

>  <template_shape_score>  (1) 
0.247

>  <template_color_score>  (1) 
0.040

>  <template_combo_score>  (1) 
0.144

$$$$
3DNJ_color_pose
     RDKit          3D

 26 26  0  0  0  0  0  0  0  0999 V2000
   10.2304    4.3734    2.9162 C   0  0  0  0  0  0  0  0  0  0  0  0
   10.1369    5.6195    3.7016 C   0  0  0  0  0  0  0  0  0  0  0  0
   11.4041    5.7965    4.5511 C   0  0  0  0  0  0  0  0  0  0  0  0
    8.9223    5.8984    4.4872 C   0  0  0  0  0  0  0  0  0  0  0  0
    7.6369    6.0755    3.7635 C   0  0  2  0  0  0  0  0  0  0  0  0
    6.5805    6.3220    4.8081 N   0  0  0  0  0  0  0  0  0  0  0  0
    6.2398    7.6559    5.1417 C   0  0  0  0  0  0  0  0  0  0  0  0
    6.8347    8.6003    4.5270 O   0  0  0  0  0  0  0  0  0  0  0  0
    5.2537    8.0612    6.1537 C   0  0  1  0  0  0  0  0  0  0  0  0
    5.3775    9.5123    6.3884 N   0  0  0  0  0  0  0  0  0  0  0  0
    3.8261    7.8226    5.8767 C   0  0  0  0  0  0  0  0  0  0  0  0
    3.3629    6.4686    5.6506 C   0  0  0  0  0  0  0  0  0  0  0  0
    3.2488    5.9699    4.3708 C   0  0  0  0  0  0  0  0  0  0  0  0
    2.7927    4.6837    4.2085 C   0  0  0  0  0  0  0  0  0  0  0  0
    2.4404    3.8503    5.2459 C   0  0  0  0  0  0  0  0  0  0  0  0
    1.9835    2.5472    5.0011 O   0  0  0  0  0  0  0  0  0  0  0  0
    2.5600    4.3610    6.5239 C   0  0  0  0  0  0  0  0  0  0  0  0
    3.0129    5.6480    6.7308 C   0  0  0  0  0  0  0  0  0  0  0  0
    7.2101    5.0709    2.8139 C   0  0  0  0  0  0  0  0  0  0  0  0
    7.8290    4.9841    1.6961 O   0  0  0  0  0  0  0  0  0  0  0  0
    6.1543    4.1318    2.9769 N   0  0  0  0  0  0  0  0  0  0  0  0
    5.9197    3.2071    1.9001 C   0  0  1  0  0  0  0  0  0  0  0  0
    6.2731    1.8257    2.4794 C   0  0  0  0  0  0  0  0  0  0  0  0
    4.5570    3.1631    1.3786 C   0  0  0  0  0  0  0  0  0  0  0  0
    4.1872    3.9949    0.5188 O   0  0  0  0  0  0  0  0  0  0  0  0
    3.6828    2.1722    1.8627 O   0  0  0  0  0  0  0  0  0  0  0  0
  1  2  1  0
  2  3  1  0
  2  4  1  0
  5  4  1  1
  5  6  1  0
  6  7  1  0
  7  8  2  0
  7  9  1  0
  9 10  1  6
  9 11  1  0
 11 12  1  0
 12 13  2  0
 13 14  1  0
 14 15  2  0
 15 16  1  0
 15 17  1  0
 17 18  2  0
  5 19  1  0
 19 20  2  0
 19 21  1  0
 21 22  1  0
 22 23  1  1
 22 24  1  0
 24 25  2  0
 24 26  1  0
 18 12  1  0
M  CHG  2  10   1  26  -1
M  END
>  <shape_align_shape_tanimoto>  (2) 
0.21648869821715525

>  <shape_align_color_tanimoto>  (2) 
0.055999114601223574

>  <metric>  (2) 
color

>  <metric_score>  (2) 
0.056

>  <template_pid>  (2) 
3DNJ

>  <template_shape_score>  (2) 
0.216

>  <template_color_score>  (2) 
0.056

>  <template_combo_score>  (2) 
0.136

$$$$
3DNJ_combo_pose
     RDKit          3D

 26 26  0  0  0  0  0  0  0  0999 V2000
    4.8628    4.9171    0.8556 C   0  0  0  0  0  0  0  0  0  0  0  0
    5.1381    3.8348    1.9015 C   0  0  0  0  0  0  0  0  0  0  0  0
    4.8905    2.4934    1.2225 C   0  0  0  0  0  0  0  0  0  0  0  0
    6.5308    3.9230    2.4373 C   0  0  0  0  0  0  0  0  0  0  0  0
    6.7987    5.2572    3.1090 C   0  0  2  0  0  0  0  0  0  0  0  0
    8.2228    5.2355    3.5830 N   0  0  0  0  0  0  0  0  0  0  0  0
    9.2646    5.7616    2.7849 C   0  0  0  0  0  0  0  0  0  0  0  0
    8.9401    6.2372    1.6352 O   0  0  0  0  0  0  0  0  0  0  0  0
   10.6735    5.7804    3.2189 C   0  0  1  0  0  0  0  0  0  0  0  0
   10.7557    5.7769    4.6946 N   0  0  0  0  0  0  0  0  0  0  0  0
   11.4202    4.5004    2.8410 C   0  0  0  0  0  0  0  0  0  0  0  0
   11.4811    4.1899    1.4188 C   0  0  0  0  0  0  0  0  0  0  0  0
   10.4538    3.4044    0.8798 C   0  0  0  0  0  0  0  0  0  0  0  0
   10.4512    3.0363   -0.4580 C   0  0  0  0  0  0  0  0  0  0  0  0
   11.5074    3.4677   -1.2753 C   0  0  0  0  0  0  0  0  0  0  0  0
   11.5114    3.0978   -2.6339 O   0  0  0  0  0  0  0  0  0  0  0  0
   12.5163    4.2439   -0.7380 C   0  0  0  0  0  0  0  0  0  0  0  0
   12.5138    4.6078    0.5978 C   0  0  0  0  0  0  0  0  0  0  0  0
    5.9514    5.5560    4.2712 C   0  0  0  0  0  0  0  0  0  0  0  0
    6.5452    5.4715    5.4098 O   0  0  0  0  0  0  0  0  0  0  0  0
    4.6071    5.9242    4.2968 N   0  0  0  0  0  0  0  0  0  0  0  0
    3.9661    6.1671    5.6052 C   0  0  1  0  0  0  0  0  0  0  0  0
    3.6266    7.6455    5.5851 C   0  0  0  0  0  0  0  0  0  0  0  0
    2.7712    5.3157    5.7682 C   0  0  0  0  0  0  0  0  0  0  0  0
    1.6194    5.8421    5.6039 O   0  0  0  0  0  0  0  0  0  0  0  0
    2.9407    3.9793    6.0899 O   0  0  0  0  0  0  0  0  0  0  0  0
  1  2  1  0
  2  3  1  0
  2  4  1  0
  5  4  1  1
  5  6  1  0
  6  7  1  0
  7  8  2  0
  7  9  1  0
  9 10  1  1
  9 11  1  0
 11 12  1  0
 12 13  2  0
 13 14  1  0
 14 15  2  0
 15 16  1  0
 15 17  1  0
 17 18  2  0
  5 19  1  0
 19 20  2  0
 19 21  1  0
 21 22  1  0
 22 23  1  6
 22 24  1  0
 24 25  2  0
 24 26  1  0
 18 12  1  0
M  CHG  2  10   1  26  -1
M  END
>  <shape_align_shape_tanimoto>  (3) 
0.24717881768553066

>  <shape_align_color_tanimoto>  (3) 
0.040408668789056232

>  <metric>  (3) 
combo

>  <metric_score>  (3) 
0.144

>  <template_pid>  (3) 
3DNJ

>  <template_shape_score>  (3) 
0.247

>  <template_color_score>  (3) 
0.040

>  <template_combo_score>  (3) 
0.144

$$$$
