3RTM_shape_pose
     RDKit          3D

 33 36  0  0  0  0  0  0  0  0999 V2000
   26.6899   72.4661   18.1956 C   0  0  0  0  0  0  0  0  0  0  0  0
   26.8535   72.3704   19.6430 C   0  0  0  0  0  0  0  0  0  0  0  0
   27.7044   73.2767   20.4129 C   0  0  0  0  0  0  0  0  0  0  0  0
   29.1630   73.3780   20.2175 C   0  0  2  0  0  0  0  0  0  0  0  0
   29.8878   74.3636   21.0562 C   0  0  0  0  0  0  0  0  0  0  0  0
   29.5873   75.7771   21.0032 C   0  0  0  0  0  0  0  0  0  0  0  0
   28.8470   76.4427   20.0584 C   0  0  0  0  0  0  0  0  0  0  0  0
   28.6368   77.8228   20.1237 C   0  0  0  0  0  0  0  0  0  0  0  0
   27.8888   78.4641   19.1617 C   0  0  0  0  0  0  0  0  0  0  0  0
   27.6908   79.8471   19.2464 C   0  0  0  0  0  0  0  0  0  0  0  0
   26.8741   80.4457   18.1842 C   0  0  0  0  0  0  0  0  0  0  0  0
   27.2929   81.5618   17.4841 C   0  0  0  0  0  0  0  0  0  0  0  0
   26.5376   82.1153   16.4833 C   0  0  0  0  0  0  0  0  0  0  0  0
   25.3202   81.5385   16.1666 C   0  0  0  0  0  0  0  0  0  0  0  0
   24.8990   80.4206   16.8669 C   0  0  0  0  0  0  0  0  0  0  0  0
   25.6722   79.8584   17.8869 C   0  0  0  0  0  0  0  0  0  0  0  0
   25.1132   78.6771   18.5645 C   0  0  0  0  0  0  0  0  0  0  0  0
   28.2279   80.5971   20.2751 C   0  0  0  0  0  0  0  0  0  0  0  0
   28.9682   79.9149   21.2129 C   0  0  0  0  0  0  0  0  0  0  0  0
   29.1808   78.5713   21.1628 C   0  0  0  0  0  0  0  0  0  0  0  0
   29.8987   77.8885   22.0673 N   0  0  0  0  0  0  0  0  0  0  0  0
   30.1137   76.5844   22.0319 C   0  0  0  0  0  0  0  0  0  0  0  0
   30.9092   75.9655   23.0649 N   0  0  0  0  0  0  0  0  0  0  0  0
   29.7275   73.1089   18.8958 C   0  0  0  0  0  0  0  0  0  0  0  0
   29.4985   72.0385   18.2650 O   0  0  0  0  0  0  0  0  0  0  0  0
   30.5887   74.0379   18.2065 N   0  0  0  0  0  0  0  0  0  0  0  0
   31.1326   73.7421   16.8961 C   0  0  0  0  0  0  0  0  0  0  0  0
   31.9954   72.5192   16.8364 C   0  0  0  0  0  0  0  0  0  0  0  0
   32.4540   72.4093   15.3754 C   0  0  0  0  0  0  0  0  0  0  0  0
   33.2657   73.6174   14.9673 C   0  0  0  0  0  0  0  0  0  0  0  0
   34.2930   73.9091   16.0312 C   0  0  0  0  0  0  0  0  0  0  0  0
   34.4231   72.7866   17.0135 C   0  0  0  0  0  0  0  0  0  0  0  0
   33.1486   72.4962   17.7777 C   0  0  0  0  0  0  0  0  0  0  0  0
  1  2  1  0
  2  3  1  0
  4  3  1  6
  4  5  1  0
  5  6  1  0
  6  7  2  0
  7  8  1  0
  8  9  2  0
  9 10  1  0
 10 11  1  0
 11 12  2  0
 12 13  1  0
 13 14  2  0
 14 15  1  0
 15 16  2  0
 16 17  1  0
 10 18  2  0
 18 19  1  0
 19 20  2  0
 20 21  1  0
 21 22  2  0
 22 23  1  0
  4 24  1  0
 24 25  2  0
 24 26  1  0
 26 27  1  0
 27 28  1  0
 28 29  1  0
 29 30  1  0
 30 31  1  0
 31 32  1  0
 32 33  1  0
 22  6  1  0
 33 28  1  0
 20  8  1  0
 16 11  1  0
M  END
>  <shape_align_shape_tanimoto>  (1) 
0.67544919791287172

>  <shape_align_color_tanimoto>  (1) 
0.045022068202542245

>  <metric>  (1) 
shape

>  <metric_score>  (1) 
0.675

>  <template_pid>  (1) 
3RTM

>  <template_shape_score>  (1) 
0.675

>  <template_color_score>  (1) 
0.045

>  <template_combo_score>  (1) 
0.360

$$$$
3RTM_color_pose
     RDKit          3D

 33 36  0  0  0  0  0  0  0  0999 V2000
   30.9708   73.4454   18.2114 C   0  0  0  0  0  0  0  0  0  0  0  0
   31.3267   73.4467   19.6655 C   0  0  0  0  0  0  0  0  0  0  0  0
   30.5123   74.4659   20.4535 C   0  0  0  0  0  0  0  0  0  0  0  0
   29.0511   74.2050   20.3727 C   0  0  2  0  0  0  0  0  0  0  0  0
   28.2909   75.2328   21.1762 C   0  0  0  0  0  0  0  0  0  0  0  0
   28.4627   76.6228   20.7935 C   0  0  0  0  0  0  0  0  0  0  0  0
   27.5344   77.1675   19.8951 C   0  0  0  0  0  0  0  0  0  0  0  0
   27.6379   78.4624   19.4494 C   0  0  0  0  0  0  0  0  0  0  0  0
   26.7116   78.9952   18.5597 C   0  0  0  0  0  0  0  0  0  0  0  0
   26.8195   80.2954   18.1176 C   0  0  0  0  0  0  0  0  0  0  0  0
   25.8822   80.9167   17.1936 C   0  0  0  0  0  0  0  0  0  0  0  0
   26.4156   81.6203   16.1348 C   0  0  0  0  0  0  0  0  0  0  0  0
   25.5829   82.2436   15.2003 C   0  0  0  0  0  0  0  0  0  0  0  0
   24.2120   82.1334   15.3695 C   0  0  0  0  0  0  0  0  0  0  0  0
   23.6811   81.4257   16.4347 C   0  0  0  0  0  0  0  0  0  0  0  0
   24.5348   80.8209   17.3415 C   0  0  0  0  0  0  0  0  0  0  0  0
   23.9098   80.0835   18.4617 C   0  0  0  0  0  0  0  0  0  0  0  0
   27.8775   81.0888   18.5718 C   0  0  0  0  0  0  0  0  0  0  0  0
   28.8098   80.5782   19.4568 C   0  0  0  0  0  0  0  0  0  0  0  0
   28.6784   79.2730   19.8840 C   0  0  0  0  0  0  0  0  0  0  0  0
   29.5658   78.7534   20.7432 N   0  0  0  0  0  0  0  0  0  0  0  0
   29.4688   77.4687   21.1906 C   0  0  0  0  0  0  0  0  0  0  0  0
   30.4514   77.0668   22.1324 N   0  0  0  0  0  0  0  0  0  0  0  0
   28.6771   72.8177   20.8710 C   0  0  0  0  0  0  0  0  0  0  0  0
   28.1021   72.0095   20.1130 O   0  0  0  0  0  0  0  0  0  0  0  0
   28.9771   72.4449   22.1957 N   0  0  0  0  0  0  0  0  0  0  0  0
   28.7216   71.2426   22.8804 C   0  0  0  0  0  0  0  0  0  0  0  0
   29.2930   69.9461   22.4504 C   0  0  0  0  0  0  0  0  0  0  0  0
   30.7638   69.8633   22.4013 C   0  0  0  0  0  0  0  0  0  0  0  0
   31.4611   69.6394   21.1335 C   0  0  0  0  0  0  0  0  0  0  0  0
   30.6770   69.3806   19.9075 C   0  0  0  0  0  0  0  0  0  0  0  0
   29.2654   68.9993   20.0745 C   0  0  0  0  0  0  0  0  0  0  0  0
   28.6367   69.1863   21.3844 C   0  0  0  0  0  0  0  0  0  0  0  0
  1  2  1  0
  2  3  1  0
  4  3  1  1
  4  5  1  0
  5  6  1  0
  6  7  2  0
  7  8  1  0
  8  9  2  0
  9 10  1  0
 10 11  1  0
 11 12  2  0
 12 13  1  0
 13 14  2  0
 14 15  1  0
 15 16  2  0
 16 17  1  0
 10 18  2  0
 18 19  1  0
 19 20  2  0
 20 21  1  0
 21 22  2  0
 22 23  1  0
  4 24  1  0
 24 25  2  0
 24 26  1  0
 26 27  1  0
 27 28  1  0
 28 29  1  0
 29 30  1  0
 30 31  1  0
 31 32  1  0
 32 33  1  0
 22  6  1  0
 33 28  1  0
 20  8  1  0
 16 11  1  0
M  END
>  <shape_align_shape_tanimoto>  (2) 
0.57711104877988917

>  <shape_align_color_tanimoto>  (2) 
0.13255050165546725

>  <metric>  (2) 
color

>  <metric_score>  (2) 
0.133

>  <template_pid>  (2) 
3RTM

>  <template_shape_score>  (2) 
0.577

>  <template_color_score>  (2) 
0.133

>  <template_combo_score>  (2) 
0.355

$$$$
3RTM_combo_pose
     RDKit          3D

 33 36  0  0  0  0  0  0  0  0999 V2000
   29.2622   73.6345   24.0808 C   0  0  0  0  0  0  0  0  0  0  0  0
   28.4539   72.7333   23.2388 C   0  0  0  0  0  0  0  0  0  0  0  0
   28.1732   73.0807   21.8362 C   0  0  0  0  0  0  0  0  0  0  0  0
   29.1973   73.2319   20.8354 C   0  0  2  0  0  0  0  0  0  0  0  0
   30.2701   74.2340   20.8923 C   0  0  0  0  0  0  0  0  0  0  0  0
   29.9623   75.6536   20.9743 C   0  0  0  0  0  0  0  0  0  0  0  0
   29.1779   76.2985   20.0050 C   0  0  0  0  0  0  0  0  0  0  0  0
   28.8081   77.6232   20.1208 C   0  0  0  0  0  0  0  0  0  0  0  0
   28.0247   78.2309   19.1699 C   0  0  0  0  0  0  0  0  0  0  0  0
   27.6242   79.5567   19.2638 C   0  0  0  0  0  0  0  0  0  0  0  0
   26.7372   80.1169   18.2526 C   0  0  0  0  0  0  0  0  0  0  0  0
   25.5283   79.4286   18.0828 C   0  0  0  0  0  0  0  0  0  0  0  0
   24.5869   79.8850   17.1941 C   0  0  0  0  0  0  0  0  0  0  0  0
   24.8816   81.0389   16.4847 C   0  0  0  0  0  0  0  0  0  0  0  0
   26.0684   81.7338   16.6357 C   0  0  0  0  0  0  0  0  0  0  0  0
   27.0060   81.2513   17.5409 C   0  0  0  0  0  0  0  0  0  0  0  0
   28.3049   81.9804   17.6973 C   0  0  0  0  0  0  0  0  0  0  0  0
   28.0339   80.3107   20.3658 C   0  0  0  0  0  0  0  0  0  0  0  0
   28.8287   79.7031   21.3383 C   0  0  0  0  0  0  0  0  0  0  0  0
   29.1967   78.3803   21.1996 C   0  0  0  0  0  0  0  0  0  0  0  0
   29.9509   77.7617   22.1270 N   0  0  0  0  0  0  0  0  0  0  0  0
   30.3255   76.4775   22.0444 C   0  0  0  0  0  0  0  0  0  0  0  0
   31.1733   76.0036   23.0837 N   0  0  0  0  0  0  0  0  0  0  0  0
   28.7560   73.1472   19.4053 C   0  0  0  0  0  0  0  0  0  0  0  0
   29.6702   73.3455   18.5349 O   0  0  0  0  0  0  0  0  0  0  0  0
   27.4681   72.8779   18.9652 N   0  0  0  0  0  0  0  0  0  0  0  0
   27.1732   72.8298   17.5510 C   0  0  0  0  0  0  0  0  0  0  0  0
   27.9216   71.8027   16.7741 C   0  0  0  0  0  0  0  0  0  0  0  0
   27.5652   71.8142   15.2962 C   0  0  0  0  0  0  0  0  0  0  0  0
   26.0883   71.6005   15.1281 C   0  0  0  0  0  0  0  0  0  0  0  0
   25.5495   70.4018   15.8215 C   0  0  0  0  0  0  0  0  0  0  0  0
   26.3651   69.8065   16.8912 C   0  0  0  0  0  0  0  0  0  0  0  0
   27.6921   70.3862   17.1977 C   0  0  0  0  0  0  0  0  0  0  0  0
  1  2  1  0
  2  3  1  0
  4  3  1  1
  4  5  1  0
  5  6  1  0
  6  7  2  0
  7  8  1  0
  8  9  2  0
  9 10  1  0
 10 11  1  0
 11 12  2  0
 12 13  1  0
 13 14  2  0
 14 15  1  0
 15 16  2  0
 16 17  1  0
 10 18  2  0
 18 19  1  0
 19 20  2  0
 20 21  1  0
 21 22  2  0
 22 23  1  0
  4 24  1  0
 24 25  2  0
 24 26  1  0
 26 27  1  0
 27 28  1  0
 28 29  1  0
 29 30  1  0
 30 31  1  0
 31 32  1  0
 32 33  1  0
 22  6  1  0
 33 28  1  0
 20  8  1  0
 16 11  1  0
M  END
>  <shape_align_shape_tanimoto>  (3) 
0.67149853268013326

>  <shape_align_color_tanimoto>  (3) 
0.061680834308768272

>  <metric>  (3) 
combo

>  <metric_score>  (3) 
0.367

>  <template_pid>  (3) 
3RTM

>  <template_shape_score>  (3) 
0.671

>  <template_color_score>  (3) 
0.062

>  <template_combo_score>  (3) 
0.367

$$$$
