3MTB_shape_pose
     RDKit          3D

 24 25  0  0  0  0  0  0  0  0999 V2000
   34.4378   25.2922   26.1680 O   0  0  0  0  0  0  0  0  0  0  0  0
   33.6962   24.3912   25.4052 C   0  0  0  0  0  0  0  0  0  0  0  0
   33.6339   23.0705   26.1269 C   0  0  1  0  0  0  0  0  0  0  0  0
   33.0268   23.2377   27.3684 O   0  0  0  0  0  0  0  0  0  0  0  0
   33.0538   22.1014   28.1350 C   0  0  1  0  0  0  0  0  0  0  0  0
   32.2499   22.3438   29.3232 N   0  0  0  0  0  0  0  0  0  0  0  0
   32.5680   23.4393   30.1420 C   0  0  0  0  0  0  0  0  0  0  0  0
   31.7302   23.7964   31.4934 S   0  0  0  0  0  0  0  0  0  0  0  0
   33.6646   24.3108   29.8217 N   0  0  0  0  0  0  0  0  0  0  0  0
   34.8294   24.1181   30.2256 N   0  0  0  0  0  0  0  0  0  0  0  0
   35.9656   24.9419   29.9463 C   0  0  0  0  0  0  0  0  0  0  0  0
   37.0322   24.8222   30.9622 C   0  0  0  0  0  0  0  0  0  0  0  0
   38.0213   23.8579   30.7892 C   0  0  0  0  0  0  0  0  0  0  0  0
   39.0381   23.6997   31.7000 C   0  0  0  0  0  0  0  0  0  0  0  0
   39.1106   24.5039   32.8305 C   0  0  0  0  0  0  0  0  0  0  0  0
   38.1329   25.4586   33.0034 C   0  0  0  0  0  0  0  0  0  0  0  0
   38.2312   26.4780   34.4433 Cl  0  0  0  0  0  0  0  0  0  0  0  0
   37.1174   25.6099   32.0851 C   0  0  0  0  0  0  0  0  0  0  0  0
   32.4914   20.8812   27.4632 C   0  0  2  0  0  0  0  0  0  0  0  0
   32.7377   19.7832   28.2641 O   0  0  0  0  0  0  0  0  0  0  0  0
   33.1082   20.7296   26.0805 C   0  0  1  0  0  0  0  0  0  0  0  0
   32.5961   19.6510   25.4060 O   0  0  0  0  0  0  0  0  0  0  0  0
   32.7837   22.0603   25.3881 C   0  0  2  0  0  0  0  0  0  0  0  0
   33.0025   22.0206   24.0298 O   0  0  0  0  0  0  0  0  0  0  0  0
  1  2  1  0
  3  2  1  6
  3  4  1  0
  4  5  1  0
  5  6  1  1
  6  7  1  0
  7  8  2  0
  7  9  1  0
  9 10  2  0
 10 11  1  0
 11 12  1  0
 12 13  2  0
 13 14  1  0
 14 15  2  0
 15 16  1  0
 16 17  1  0
 16 18  2  0
  5 19  1  0
 19 20  1  1
 19 21  1  0
 21 22  1  6
 21 23  1  0
 23 24  1  6
 23  3  1  0
 18 12  1  0
M  END
>  <shape_align_shape_tanimoto>  (1) 
0.70043564164800476

>  <shape_align_color_tanimoto>  (1) 
0.047112306002677955

>  <metric>  (1) 
shape

>  <metric_score>  (1) 
0.700

>  <template_pid>  (1) 
3MTB

>  <template_shape_score>  (1) 
0.700

>  <template_color_score>  (1) 
0.047

>  <template_combo_score>  (1) 
0.374

$$$$
3MTB_color_pose
     RDKit          3D

 24 25  0  0  0  0  0  0  0  0999 V2000
   35.6079   20.6597   29.4093 O   0  0  0  0  0  0  0  0  0  0  0  0
   35.3130   19.8739   28.2903 C   0  0  0  0  0  0  0  0  0  0  0  0
   33.8088   19.9117   28.1405 C   0  0  1  0  0  0  0  0  0  0  0  0
   33.4342   21.2124   27.9607 O   0  0  0  0  0  0  0  0  0  0  0  0
   32.2305   21.4024   27.3027 C   0  0  1  0  0  0  0  0  0  0  0  0
   32.3601   21.4949   25.8750 N   0  0  0  0  0  0  0  0  0  0  0  0
   33.2326   22.4391   25.2930 C   0  0  0  0  0  0  0  0  0  0  0  0
   33.3942   22.5601   23.6679 S   0  0  0  0  0  0  0  0  0  0  0  0
   34.0123   23.3295   26.0827 N   0  0  0  0  0  0  0  0  0  0  0  0
   33.4263   24.3444   26.5464 N   0  0  0  0  0  0  0  0  0  0  0  0
   33.9958   25.3703   27.3589 C   0  0  0  0  0  0  0  0  0  0  0  0
   34.6248   24.7526   28.5510 C   0  0  0  0  0  0  0  0  0  0  0  0
   35.9482   24.3625   28.5168 C   0  0  0  0  0  0  0  0  0  0  0  0
   36.5269   23.7888   29.6285 C   0  0  0  0  0  0  0  0  0  0  0  0
   35.8036   23.5868   30.8080 C   0  0  0  0  0  0  0  0  0  0  0  0
   34.4885   23.9746   30.8416 C   0  0  0  0  0  0  0  0  0  0  0  0
   33.5856   23.7238   32.3101 Cl  0  0  0  0  0  0  0  0  0  0  0  0
   33.9049   24.5554   29.7141 C   0  0  0  0  0  0  0  0  0  0  0  0
   31.2455   20.3263   27.6755 C   0  0  2  0  0  0  0  0  0  0  0  0
   31.0485   20.4281   29.0479 O   0  0  0  0  0  0  0  0  0  0  0  0
   31.7640   19.0191   27.2030 C   0  0  1  0  0  0  0  0  0  0  0  0
   31.2253   18.7155   25.9541 O   0  0  0  0  0  0  0  0  0  0  0  0
   33.2892   19.0154   27.0470 C   0  0  2  0  0  0  0  0  0  0  0  0
   33.6803   17.7144   27.2096 O   0  0  0  0  0  0  0  0  0  0  0  0
  1  2  1  0
  3  2  1  6
  3  4  1  0
  4  5  1  0
  5  6  1  6
  6  7  1  0
  7  8  2  0
  7  9  1  0
  9 10  2  0
 10 11  1  0
 11 12  1  0
 12 13  2  0
 13 14  1  0
 14 15  2  0
 15 16  1  0
 16 17  1  0
 16 18  2  0
  5 19  1  0
 19 20  1  1
 19 21  1  0
 21 22  1  6
 21 23  1  0
 23 24  1  1
 23  3  1  0
 18 12  1  0
M  END
>  <shape_align_shape_tanimoto>  (2) 
0.46626650509711109

>  <shape_align_color_tanimoto>  (2) 
0.10832075209573307

>  <metric>  (2) 
color

>  <metric_score>  (2) 
0.108

>  <template_pid>  (2) 
3MTB

>  <template_shape_score>  (2) 
0.466

>  <template_color_score>  (2) 
0.108

>  <template_combo_score>  (2) 
0.287

$$$$
3MTB_combo_pose
     RDKit          3D

 24 25  0  0  0  0  0  0  0  0999 V2000
   37.8628   28.4892   31.9701 O   0  0  0  0  0  0  0  0  0  0  0  0
   37.2753   27.5369   31.1083 C   0  0  0  0  0  0  0  0  0  0  0  0
   36.5769   26.5320   31.9912 C   0  0  1  0  0  0  0  0  0  0  0  0
   35.9405   25.5200   31.3508 O   0  0  0  0  0  0  0  0  0  0  0  0
   36.5502   24.3172   31.2289 C   0  0  1  0  0  0  0  0  0  0  0  0
   36.2342   23.7894   29.9162 N   0  0  0  0  0  0  0  0  0  0  0  0
   34.8825   23.7513   29.4549 C   0  0  0  0  0  0  0  0  0  0  0  0
   33.6897   24.3185   30.4422 S   0  0  0  0  0  0  0  0  0  0  0  0
   34.5011   23.2536   28.1942 N   0  0  0  0  0  0  0  0  0  0  0  0
   34.0203   23.9370   27.2665 N   0  0  0  0  0  0  0  0  0  0  0  0
   33.6837   23.2347   26.0210 C   0  0  0  0  0  0  0  0  0  0  0  0
   32.9975   21.9740   26.4652 C   0  0  0  0  0  0  0  0  0  0  0  0
   31.6198   21.9847   26.6302 C   0  0  0  0  0  0  0  0  0  0  0  0
   30.9858   20.8264   27.0387 C   0  0  0  0  0  0  0  0  0  0  0  0
   31.7035   19.6740   27.2808 C   0  0  0  0  0  0  0  0  0  0  0  0
   33.0714   19.6794   27.1124 C   0  0  0  0  0  0  0  0  0  0  0  0
   34.0001   18.2311   27.4134 Cl  0  0  0  0  0  0  0  0  0  0  0  0
   33.7341   20.8237   26.7043 C   0  0  0  0  0  0  0  0  0  0  0  0
   38.0236   24.2622   31.5071 C   0  0  2  0  0  0  0  0  0  0  0  0
   38.3945   22.9255   31.6614 O   0  0  0  0  0  0  0  0  0  0  0  0
   38.4037   25.0029   32.7383 C   0  0  1  0  0  0  0  0  0  0  0  0
   39.7141   25.4889   32.5676 O   0  0  0  0  0  0  0  0  0  0  0  0
   37.4697   26.1098   33.1362 C   0  0  2  0  0  0  0  0  0  0  0  0
   36.6613   25.7248   34.2237 O   0  0  0  0  0  0  0  0  0  0  0  0
  1  2  1  0
  3  2  1  6
  3  4  1  0
  4  5  1  0
  5  6  1  6
  6  7  1  0
  7  8  2  0
  7  9  1  0
  9 10  2  0
 10 11  1  0
 11 12  1  0
 12 13  2  0
 13 14  1  0
 14 15  2  0
 15 16  1  0
 16 17  1  0
 16 18  2  0
  5 19  1  0
 19 20  1  1
 19 21  1  0
 21 22  1  6
 21 23  1  0
 23 24  1  1
 23  3  1  0
 18 12  1  0
M  END
>  <shape_align_shape_tanimoto>  (3) 
0.65487437132457127

>  <shape_align_color_tanimoto>  (3) 
0.1041242055107493

>  <metric>  (3) 
combo

>  <metric_score>  (3) 
0.379

>  <template_pid>  (3) 
3MTB

>  <template_shape_score>  (3) 
0.655

>  <template_color_score>  (3) 
0.104

>  <template_combo_score>  (3) 
0.379

$$$$
