6HHI_shape_pose
     RDKit          3D

 44 49  0  0  0  0  0  0  0  0999 V2000
   -2.3667   13.0603   -2.4428 C   0  0  0  0  0  0  0  0  0  0  0  0
   -1.1405   12.8718   -3.2979 C   0  0  0  0  0  0  0  0  0  0  0  0
   -0.7502   11.4275   -3.2193 C   0  0  0  0  0  0  0  0  0  0  0  0
   -1.3927   10.5954   -2.5270 O   0  0  0  0  0  0  0  0  0  0  0  0
    0.4011   11.0567   -3.9834 N   0  0  0  0  0  0  0  0  0  0  0  0
    0.9059    9.7283   -4.0199 C   0  0  0  0  0  0  0  0  0  0  0  0
    1.8586    9.2655   -3.1211 C   0  0  0  0  0  0  0  0  0  0  0  0
    2.3285    7.9646   -3.1876 C   0  0  0  0  0  0  0  0  0  0  0  0
    1.8292    7.1115   -4.1794 C   0  0  0  0  0  0  0  0  0  0  0  0
    0.8851    7.5488   -5.0802 C   0  0  0  0  0  0  0  0  0  0  0  0
    0.4086    6.6097   -6.0887 C   0  0  0  0  0  0  0  0  0  0  0  0
    0.9108    5.4561   -6.0686 O   0  0  0  0  0  0  0  0  0  0  0  0
   -0.5618    6.9150   -7.0630 N   0  0  0  0  0  0  0  0  0  0  0  0
   -1.0194    5.9745   -8.0519 C   0  0  1  0  0  0  0  0  0  0  0  0
   -2.5062    5.7477   -7.7708 C   0  0  0  0  0  0  0  0  0  0  0  0
   -3.2847    6.7178   -8.6215 C   0  0  0  0  0  0  0  0  0  0  0  0
   -3.2276    6.3614  -10.0275 N   0  0  2  0  0  0  0  0  0  0  0  0
   -4.3850    5.5947  -10.4360 C   0  0  0  0  0  0  0  0  0  0  0  0
   -4.1012    4.5486  -11.4253 C   0  0  0  0  0  0  0  0  0  0  0  0
   -4.1769    4.8472  -12.7911 C   0  0  0  0  0  0  0  0  0  0  0  0
   -3.9030    3.8438  -13.7186 C   0  0  0  0  0  0  0  0  0  0  0  0
   -3.5594    2.5646  -13.3488 C   0  0  0  0  0  0  0  0  0  0  0  0
   -3.2720    1.4920  -14.2886 C   0  0  0  0  0  0  0  0  0  0  0  0
   -1.9588    1.2078  -14.5074 N   0  0  0  0  0  0  0  0  0  0  0  0
   -1.5520    0.2445  -15.3517 C   0  0  0  0  0  0  0  0  0  0  0  0
   -2.4930   -0.5013  -16.0373 C   0  0  0  0  0  0  0  0  0  0  0  0
   -3.8309   -0.2204  -15.8219 C   0  0  0  0  0  0  0  0  0  0  0  0
   -4.2393    0.7780  -14.9465 C   0  0  0  0  0  0  0  0  0  0  0  0
   -5.6549    1.0335  -14.7518 C   0  0  0  0  0  0  0  0  0  0  0  0
   -6.3124    2.1571  -15.1925 C   0  0  0  0  0  0  0  0  0  0  0  0
   -7.6701    2.3474  -14.9701 C   0  0  0  0  0  0  0  0  0  0  0  0
   -8.3617    1.3514  -14.2760 C   0  0  0  0  0  0  0  0  0  0  0  0
   -7.7284    0.2137  -13.8224 C   0  0  0  0  0  0  0  0  0  0  0  0
   -6.3757    0.0555  -14.0605 C   0  0  0  0  0  0  0  0  0  0  0  0
   -2.0162   -1.5244  -16.9327 C   0  0  0  0  0  0  0  0  0  0  0  0
   -2.8775   -2.2075  -17.5608 O   0  0  0  0  0  0  0  0  0  0  0  0
   -0.6231   -1.7445  -17.0925 N   0  0  0  0  0  0  0  0  0  0  0  0
    0.2305   -1.0371  -16.4432 C   0  0  0  0  0  0  0  0  0  0  0  0
   -0.0886    0.0354  -15.4998 C   0  0  0  0  0  0  0  0  0  0  0  0
   -3.4855    2.2724  -12.0025 C   0  0  0  0  0  0  0  0  0  0  0  0
   -3.7526    3.2508  -11.0676 C   0  0  0  0  0  0  0  0  0  0  0  0
   -1.9715    5.7266  -10.2837 C   0  0  0  0  0  0  0  0  0  0  0  0
   -0.9145    6.4545   -9.4700 C   0  0  0  0  0  0  0  0  0  0  0  0
    0.4249    8.8559   -4.9993 C   0  0  0  0  0  0  0  0  0  0  0  0
  1  2  1  0
  2  3  1  0
  3  4  2  0
  3  5  1  0
  5  6  1  0
  6  7  2  0
  7  8  1  0
  8  9  2  0
  9 10  1  0
 10 11  1  0
 11 12  2  0
 11 13  1  0
 14 13  1  1
 14 15  1  0
 15 16  1  0
 16 17  1  0
 17 18  1  1
 18 19  1  0
 19 20  2  0
 20 21  1  0
 21 22  2  0
 22 23  1  0
 23 24  2  0
 24 25  1  0
 25 26  2  0
 26 27  1  0
 27 28  2  0
 28 29  1  0
 29 30  2  0
 30 31  1  0
 31 32  2  0
 32 33  1  0
 33 34  2  0
 26 35  1  0
 35 36  2  0
 35 37  1  0
 37 38  2  0
 38 39  1  0
 22 40  1  0
 40 41  2  0
 17 42  1  0
 42 43  1  0
 10 44  2  0
 44  6  1  0
 43 14  1  0
 41 19  1  0
 28 23  1  0
 34 29  1  0
 39 25  1  0
M  CHG  1  17   1
M  END
>  <shape_align_shape_tanimoto>  (1) 
0.69635625776125476

>  <shape_align_color_tanimoto>  (1) 
0.030265108790727229

>  <metric>  (1) 
shape

>  <metric_score>  (1) 
0.696

>  <template_pid>  (1) 
6HHI

>  <template_shape_score>  (1) 
0.696

>  <template_color_score>  (1) 
0.030

>  <template_combo_score>  (1) 
0.363

$$$$
6HHI_color_pose
     RDKit          3D

 44 49  0  0  0  0  0  0  0  0999 V2000
    4.1280    4.3067  -12.2976 C   0  0  0  0  0  0  0  0  0  0  0  0
    3.4352    4.3330  -13.6436 C   0  0  0  0  0  0  0  0  0  0  0  0
    2.6841    3.0499  -13.7770 C   0  0  0  0  0  0  0  0  0  0  0  0
    2.6890    2.1669  -12.8814 O   0  0  0  0  0  0  0  0  0  0  0  0
    1.9494    2.8819  -14.9983 N   0  0  0  0  0  0  0  0  0  0  0  0
    1.2008    1.6695  -15.1965 C   0  0  0  0  0  0  0  0  0  0  0  0
    1.7497    0.5566  -15.7955 C   0  0  0  0  0  0  0  0  0  0  0  0
    0.9500   -0.5736  -15.9459 C   0  0  0  0  0  0  0  0  0  0  0  0
   -0.3759   -0.5826  -15.5018 C   0  0  0  0  0  0  0  0  0  0  0  0
   -0.9253    0.5316  -14.9020 C   0  0  0  0  0  0  0  0  0  0  0  0
   -2.3109    0.4695  -14.4556 C   0  0  0  0  0  0  0  0  0  0  0  0
   -2.9250   -0.6063  -14.6556 O   0  0  0  0  0  0  0  0  0  0  0  0
   -2.9796    1.5520  -13.8180 N   0  0  0  0  0  0  0  0  0  0  0  0
   -4.3450    1.3610  -13.4269 C   0  0  1  0  0  0  0  0  0  0  0  0
   -4.5321    1.5562  -11.9418 C   0  0  0  0  0  0  0  0  0  0  0  0
   -3.9054    2.8675  -11.5395 C   0  0  0  0  0  0  0  0  0  0  0  0
   -4.4432    3.9374  -12.2900 N   0  0  2  0  0  0  0  0  0  0  0  0
   -4.8225    5.0842  -11.4938 C   0  0  0  0  0  0  0  0  0  0  0  0
   -3.9105    5.4188  -10.4048 C   0  0  0  0  0  0  0  0  0  0  0  0
   -4.0380    5.0279   -9.0925 C   0  0  0  0  0  0  0  0  0  0  0  0
   -3.1470    5.3540   -8.0999 C   0  0  0  0  0  0  0  0  0  0  0  0
   -2.0440    6.1314   -8.4492 C   0  0  0  0  0  0  0  0  0  0  0  0
   -1.1149    6.4601   -7.3741 C   0  0  0  0  0  0  0  0  0  0  0  0
   -0.8799    7.7361   -6.9771 N   0  0  0  0  0  0  0  0  0  0  0  0
   -0.0161    8.0169   -5.9811 C   0  0  0  0  0  0  0  0  0  0  0  0
    0.6570    6.9856   -5.3362 C   0  0  0  0  0  0  0  0  0  0  0  0
    0.4158    5.6912   -5.7419 C   0  0  0  0  0  0  0  0  0  0  0  0
   -0.4701    5.3988   -6.7640 C   0  0  0  0  0  0  0  0  0  0  0  0
   -0.6911    4.0102   -7.1566 C   0  0  0  0  0  0  0  0  0  0  0  0
   -0.3373    3.6891   -8.4685 C   0  0  0  0  0  0  0  0  0  0  0  0
   -0.4993    2.4065   -8.9555 C   0  0  0  0  0  0  0  0  0  0  0  0
   -1.0230    1.4694   -8.0881 C   0  0  0  0  0  0  0  0  0  0  0  0
   -1.3751    1.7719   -6.7953 C   0  0  0  0  0  0  0  0  0  0  0  0
   -1.2132    3.0597   -6.3038 C   0  0  0  0  0  0  0  0  0  0  0  0
    1.5869    7.3050   -4.2622 C   0  0  0  0  0  0  0  0  0  0  0  0
    2.2050    6.3992   -3.6658 O   0  0  0  0  0  0  0  0  0  0  0  0
    1.7572    8.6723   -3.9281 N   0  0  0  0  0  0  0  0  0  0  0  0
    1.1362    9.6209   -4.5232 C   0  0  0  0  0  0  0  0  0  0  0  0
    0.1702    9.4438   -5.6225 C   0  0  0  0  0  0  0  0  0  0  0  0
   -1.8657    6.5524   -9.7509 C   0  0  0  0  0  0  0  0  0  0  0  0
   -2.7936    6.1962  -10.7148 C   0  0  0  0  0  0  0  0  0  0  0  0
   -5.5830    3.4648  -13.0657 C   0  0  0  0  0  0  0  0  0  0  0  0
   -5.1841    2.4444  -14.0863 C   0  0  0  0  0  0  0  0  0  0  0  0
   -0.1221    1.6402  -14.7610 C   0  0  0  0  0  0  0  0  0  0  0  0
  1  2  1  0
  2  3  1  0
  3  4  2  0
  3  5  1  0
  5  6  1  0
  6  7  2  0
  7  8  1  0
  8  9  2  0
  9 10  1  0
 10 11  1  0
 11 12  2  0
 11 13  1  0
 14 13  1  1
 14 15  1  0
 15 16  1  0
 16 17  1  0
 17 18  1  1
 18 19  1  0
 19 20  2  0
 20 21  1  0
 21 22  2  0
 22 23  1  0
 23 24  2  0
 24 25  1  0
 25 26  2  0
 26 27  1  0
 27 28  2  0
 28 29  1  0
 29 30  2  0
 30 31  1  0
 31 32  2  0
 32 33  1  0
 33 34  2  0
 26 35  1  0
 35 36  2  0
 35 37  1  0
 37 38  2  0
 38 39  1  0
 22 40  1  0
 40 41  2  0
 17 42  1  0
 42 43  1  0
 10 44  2  0
 44  6  1  0
 43 14  1  0
 41 19  1  0
 28 23  1  0
 34 29  1  0
 39 25  1  0
M  CHG  1  17   1
M  END
>  <shape_align_shape_tanimoto>  (2) 
0.43373658812386179

>  <shape_align_color_tanimoto>  (2) 
0.1267200022402718

>  <metric>  (2) 
color

>  <metric_score>  (2) 
0.127

>  <template_pid>  (2) 
6HHI

>  <template_shape_score>  (2) 
0.434

>  <template_color_score>  (2) 
0.127

>  <template_combo_score>  (2) 
0.280

$$$$
6HHI_combo_pose
     RDKit          3D

 44 49  0  0  0  0  0  0  0  0999 V2000
   -2.3667   13.0603   -2.4428 C   0  0  0  0  0  0  0  0  0  0  0  0
   -1.1405   12.8718   -3.2979 C   0  0  0  0  0  0  0  0  0  0  0  0
   -0.7502   11.4275   -3.2193 C   0  0  0  0  0  0  0  0  0  0  0  0
   -1.3927   10.5954   -2.5270 O   0  0  0  0  0  0  0  0  0  0  0  0
    0.4011   11.0567   -3.9834 N   0  0  0  0  0  0  0  0  0  0  0  0
    0.9059    9.7283   -4.0199 C   0  0  0  0  0  0  0  0  0  0  0  0
    1.8586    9.2655   -3.1211 C   0  0  0  0  0  0  0  0  0  0  0  0
    2.3285    7.9646   -3.1876 C   0  0  0  0  0  0  0  0  0  0  0  0
    1.8292    7.1115   -4.1794 C   0  0  0  0  0  0  0  0  0  0  0  0
    0.8851    7.5488   -5.0802 C   0  0  0  0  0  0  0  0  0  0  0  0
    0.4086    6.6097   -6.0887 C   0  0  0  0  0  0  0  0  0  0  0  0
    0.9108    5.4561   -6.0686 O   0  0  0  0  0  0  0  0  0  0  0  0
   -0.5618    6.9150   -7.0630 N   0  0  0  0  0  0  0  0  0  0  0  0
   -1.0194    5.9745   -8.0519 C   0  0  1  0  0  0  0  0  0  0  0  0
   -2.5062    5.7477   -7.7708 C   0  0  0  0  0  0  0  0  0  0  0  0
   -3.2847    6.7178   -8.6215 C   0  0  0  0  0  0  0  0  0  0  0  0
   -3.2276    6.3614  -10.0275 N   0  0  2  0  0  0  0  0  0  0  0  0
   -4.3850    5.5947  -10.4360 C   0  0  0  0  0  0  0  0  0  0  0  0
   -4.1012    4.5486  -11.4253 C   0  0  0  0  0  0  0  0  0  0  0  0
   -4.1769    4.8472  -12.7911 C   0  0  0  0  0  0  0  0  0  0  0  0
   -3.9030    3.8438  -13.7186 C   0  0  0  0  0  0  0  0  0  0  0  0
   -3.5594    2.5646  -13.3488 C   0  0  0  0  0  0  0  0  0  0  0  0
   -3.2720    1.4920  -14.2886 C   0  0  0  0  0  0  0  0  0  0  0  0
   -1.9588    1.2078  -14.5074 N   0  0  0  0  0  0  0  0  0  0  0  0
   -1.5520    0.2445  -15.3517 C   0  0  0  0  0  0  0  0  0  0  0  0
   -2.4930   -0.5013  -16.0373 C   0  0  0  0  0  0  0  0  0  0  0  0
   -3.8309   -0.2204  -15.8219 C   0  0  0  0  0  0  0  0  0  0  0  0
   -4.2393    0.7780  -14.9465 C   0  0  0  0  0  0  0  0  0  0  0  0
   -5.6549    1.0335  -14.7518 C   0  0  0  0  0  0  0  0  0  0  0  0
   -6.3124    2.1571  -15.1925 C   0  0  0  0  0  0  0  0  0  0  0  0
   -7.6701    2.3474  -14.9701 C   0  0  0  0  0  0  0  0  0  0  0  0
   -8.3617    1.3514  -14.2760 C   0  0  0  0  0  0  0  0  0  0  0  0
   -7.7284    0.2137  -13.8224 C   0  0  0  0  0  0  0  0  0  0  0  0
   -6.3757    0.0555  -14.0605 C   0  0  0  0  0  0  0  0  0  0  0  0
   -2.0162   -1.5244  -16.9327 C   0  0  0  0  0  0  0  0  0  0  0  0
   -2.8775   -2.2075  -17.5608 O   0  0  0  0  0  0  0  0  0  0  0  0
   -0.6231   -1.7445  -17.0925 N   0  0  0  0  0  0  0  0  0  0  0  0
    0.2305   -1.0371  -16.4432 C   0  0  0  0  0  0  0  0  0  0  0  0
   -0.0886    0.0354  -15.4998 C   0  0  0  0  0  0  0  0  0  0  0  0
   -3.4855    2.2724  -12.0025 C   0  0  0  0  0  0  0  0  0  0  0  0
   -3.7526    3.2508  -11.0676 C   0  0  0  0  0  0  0  0  0  0  0  0
   -1.9715    5.7266  -10.2837 C   0  0  0  0  0  0  0  0  0  0  0  0
   -0.9145    6.4545   -9.4700 C   0  0  0  0  0  0  0  0  0  0  0  0
    0.4249    8.8559   -4.9993 C   0  0  0  0  0  0  0  0  0  0  0  0
  1  2  1  0
  2  3  1  0
  3  4  2  0
  3  5  1  0
  5  6  1  0
  6  7  2  0
  7  8  1  0
  8  9  2  0
  9 10  1  0
 10 11  1  0
 11 12  2  0
 11 13  1  0
 14 13  1  1
 14 15  1  0
 15 16  1  0
 16 17  1  0
 17 18  1  1
 18 19  1  0
 19 20  2  0
 20 21  1  0
 21 22  2  0
 22 23  1  0
 23 24  2  0
 24 25  1  0
 25 26  2  0
 26 27  1  0
 27 28  2  0
 28 29  1  0
 29 30  2  0
 30 31  1  0
 31 32  2  0
 32 33  1  0
 33 34  2  0
 26 35  1  0
 35 36  2  0
 35 37  1  0
 37 38  2  0
 38 39  1  0
 22 40  1  0
 40 41  2  0
 17 42  1  0
 42 43  1  0
 10 44  2  0
 44  6  1  0
 43 14  1  0
 41 19  1  0
 28 23  1  0
 34 29  1  0
 39 25  1  0
M  CHG  1  17   1
M  END
>  <shape_align_shape_tanimoto>  (3) 
0.69635625776125476

>  <shape_align_color_tanimoto>  (3) 
0.030265108790727229

>  <metric>  (3) 
combo

>  <metric_score>  (3) 
0.363

>  <template_pid>  (3) 
6HHI

>  <template_shape_score>  (3) 
0.696

>  <template_color_score>  (3) 
0.030

>  <template_combo_score>  (3) 
0.363

$$$$
