6G3C_shape_pose
     RDKit          3D

 29 31  0  0  0  0  0  0  0  0999 V2000
   -8.9496  -19.7657  -34.5565 C   0  0  0  0  0  0  0  0  0  0  0  0
   -8.8079  -19.0078  -35.8603 C   0  0  0  0  0  0  0  0  0  0  0  0
   -8.8436  -19.9788  -37.0460 C   0  0  0  0  0  0  0  0  0  0  0  0
   -7.4708  -18.2717  -35.9165 C   0  0  0  0  0  0  0  0  0  0  0  0
   -7.4556  -17.5618  -37.2468 C   0  0  0  0  0  0  0  0  0  0  0  0
   -6.2189  -16.8182  -37.4269 N   0  0  0  0  0  0  0  0  0  0  0  0
   -6.2336  -15.3731  -37.4150 C   0  0  0  0  0  0  0  0  0  0  0  0
   -7.3227  -14.8011  -36.8907 N   0  0  0  0  0  0  0  0  0  0  0  0
   -7.4421  -13.4557  -36.8268 C   0  0  0  0  0  0  0  0  0  0  0  0
   -8.5964  -12.8839  -36.2513 N   0  0  0  0  0  0  0  0  0  0  0  0
   -8.9108  -11.5128  -36.1574 C   0  0  0  0  0  0  0  0  0  0  0  0
  -10.0024  -11.1328  -35.3756 C   0  0  0  0  0  0  0  0  0  0  0  0
  -10.4025   -9.8273  -35.2257 C   0  0  0  0  0  0  0  0  0  0  0  0
  -11.4632   -9.4711  -34.4644 F   0  0  0  0  0  0  0  0  0  0  0  0
   -9.6758   -8.8624  -35.8885 C   0  0  0  0  0  0  0  0  0  0  0  0
  -10.0640   -7.5143  -35.7523 O   0  0  0  0  0  0  0  0  0  0  0  0
   -8.5882   -9.1580  -36.6773 C   0  0  0  0  0  0  0  0  0  0  0  0
   -7.8803   -8.2024  -37.3254 F   0  0  0  0  0  0  0  0  0  0  0  0
   -8.2363  -10.4975  -36.7871 C   0  0  0  0  0  0  0  0  0  0  0  0
   -6.4065  -12.7549  -37.3201 N   0  0  0  0  0  0  0  0  0  0  0  0
   -5.2952  -13.2682  -37.8549 C   0  0  0  0  0  0  0  0  0  0  0  0
   -5.1755  -14.6396  -37.9188 C   0  0  0  0  0  0  0  0  0  0  0  0
   -4.0481  -15.3095  -38.4594 N   0  0  0  0  0  0  0  0  0  0  0  0
   -2.9633  -14.4896  -38.9745 C   0  0  0  0  0  0  0  0  0  0  0  0
   -4.0465  -16.7161  -38.4643 C   0  0  0  0  0  0  0  0  0  0  0  0
   -3.2119  -17.3110  -39.2276 O   0  0  0  0  0  0  0  0  0  0  0  0
   -4.9806  -17.5386  -37.6129 C   0  0  0  0  0  0  0  0  0  0  0  0
   -5.1753  -18.8915  -38.2776 C   0  0  0  0  0  0  0  0  0  0  0  0
   -4.2760  -17.7763  -36.3001 C   0  0  0  0  0  0  0  0  0  0  0  0
  1  2  1  0
  2  3  1  0
  2  4  1  0
  4  5  1  0
  5  6  1  0
  6  7  1  0
  7  8  2  0
  8  9  1  0
  9 10  1  0
 10 11  1  0
 11 12  2  0
 12 13  1  0
 13 14  1  0
 13 15  2  0
 15 16  1  0
 15 17  1  0
 17 18  1  0
 17 19  2  0
  9 20  2  0
 20 21  1  0
 21 22  2  0
 22 23  1  0
 23 24  1  0
 23 25  1  0
 25 26  2  0
 25 27  1  0
 27 28  1  0
 27 29  1  0
 27  6  1  0
 22  7  1  0
 19 11  1  0
M  END
>  <shape_align_shape_tanimoto>  (1) 
0.6403365872345268

>  <shape_align_color_tanimoto>  (1) 
0.10669111298383865

>  <metric>  (1) 
shape

>  <metric_score>  (1) 
0.640

>  <template_pid>  (1) 
6G3C

>  <template_shape_score>  (1) 
0.640

>  <template_color_score>  (1) 
0.107

>  <template_combo_score>  (1) 
0.374

$$$$
6G3C_color_pose
     RDKit          3D

 29 31  0  0  0  0  0  0  0  0999 V2000
   -8.6782  -17.9386  -39.9183 C   0  0  0  0  0  0  0  0  0  0  0  0
   -9.8023  -17.8782  -38.9407 C   0  0  0  0  0  0  0  0  0  0  0  0
  -11.0944  -17.5937  -39.7501 C   0  0  0  0  0  0  0  0  0  0  0  0
   -9.6721  -16.7596  -37.9930 C   0  0  0  0  0  0  0  0  0  0  0  0
   -8.6216  -16.5809  -37.0127 C   0  0  0  0  0  0  0  0  0  0  0  0
   -7.2338  -16.5040  -37.2434 N   0  0  0  0  0  0  0  0  0  0  0  0
   -6.6459  -15.1695  -37.2238 C   0  0  0  0  0  0  0  0  0  0  0  0
   -7.4047  -14.1032  -37.6199 N   0  0  0  0  0  0  0  0  0  0  0  0
   -6.8693  -12.8520  -37.6170 C   0  0  0  0  0  0  0  0  0  0  0  0
   -7.7455  -11.8116  -38.0469 N   0  0  0  0  0  0  0  0  0  0  0  0
   -8.4028  -10.9273  -37.1492 C   0  0  0  0  0  0  0  0  0  0  0  0
   -9.3468  -10.0412  -37.6864 C   0  0  0  0  0  0  0  0  0  0  0  0
   -9.9957   -9.1453  -36.8412 C   0  0  0  0  0  0  0  0  0  0  0  0
  -10.9048   -8.3013  -37.3856 F   0  0  0  0  0  0  0  0  0  0  0  0
   -9.6738   -9.1751  -35.5076 C   0  0  0  0  0  0  0  0  0  0  0  0
  -10.3234   -8.2782  -34.6668 O   0  0  0  0  0  0  0  0  0  0  0  0
   -8.7477  -10.0388  -34.9561 C   0  0  0  0  0  0  0  0  0  0  0  0
   -8.4574  -10.0277  -33.6121 F   0  0  0  0  0  0  0  0  0  0  0  0
   -8.0978  -10.9373  -35.8040 C   0  0  0  0  0  0  0  0  0  0  0  0
   -5.6050  -12.6422  -37.2298 N   0  0  0  0  0  0  0  0  0  0  0  0
   -4.8005  -13.6683  -36.8237 C   0  0  0  0  0  0  0  0  0  0  0  0
   -5.3460  -14.9414  -36.8276 C   0  0  0  0  0  0  0  0  0  0  0  0
   -4.5472  -16.0582  -36.4234 N   0  0  0  0  0  0  0  0  0  0  0  0
   -3.1675  -15.8946  -35.9671 C   0  0  0  0  0  0  0  0  0  0  0  0
   -5.1790  -17.3283  -36.4727 C   0  0  0  0  0  0  0  0  0  0  0  0
   -4.8409  -18.2239  -35.6854 O   0  0  0  0  0  0  0  0  0  0  0  0
   -6.2816  -17.5590  -37.5192 C   0  0  0  0  0  0  0  0  0  0  0  0
   -6.7907  -18.9453  -37.3648 C   0  0  0  0  0  0  0  0  0  0  0  0
   -5.5648  -17.3996  -38.8350 C   0  0  0  0  0  0  0  0  0  0  0  0
  1  2  1  0
  2  3  1  0
  2  4  1  0
  4  5  1  0
  5  6  1  0
  6  7  1  0
  7  8  2  0
  8  9  1  0
  9 10  1  0
 10 11  1  0
 11 12  2  0
 12 13  1  0
 13 14  1  0
 13 15  2  0
 15 16  1  0
 15 17  1  0
 17 18  1  0
 17 19  2  0
  9 20  2  0
 20 21  1  0
 21 22  2  0
 22 23  1  0
 23 24  1  0
 23 25  1  0
 25 26  2  0
 25 27  1  0
 27 28  1  0
 27 29  1  0
 27  6  1  0
 22  7  1  0
 19 11  1  0
M  END
>  <shape_align_shape_tanimoto>  (2) 
0.55205987805484269

>  <shape_align_color_tanimoto>  (2) 
0.1268244266086469

>  <metric>  (2) 
color

>  <metric_score>  (2) 
0.127

>  <template_pid>  (2) 
6G3C

>  <template_shape_score>  (2) 
0.552

>  <template_color_score>  (2) 
0.127

>  <template_combo_score>  (2) 
0.339

$$$$
6G3C_combo_pose
     RDKit          3D

 29 31  0  0  0  0  0  0  0  0999 V2000
   -8.9496  -19.7657  -34.5565 C   0  0  0  0  0  0  0  0  0  0  0  0
   -8.8079  -19.0078  -35.8603 C   0  0  0  0  0  0  0  0  0  0  0  0
   -8.8436  -19.9788  -37.0460 C   0  0  0  0  0  0  0  0  0  0  0  0
   -7.4708  -18.2717  -35.9165 C   0  0  0  0  0  0  0  0  0  0  0  0
   -7.4556  -17.5618  -37.2468 C   0  0  0  0  0  0  0  0  0  0  0  0
   -6.2189  -16.8182  -37.4269 N   0  0  0  0  0  0  0  0  0  0  0  0
   -6.2336  -15.3731  -37.4150 C   0  0  0  0  0  0  0  0  0  0  0  0
   -7.3227  -14.8011  -36.8907 N   0  0  0  0  0  0  0  0  0  0  0  0
   -7.4421  -13.4557  -36.8268 C   0  0  0  0  0  0  0  0  0  0  0  0
   -8.5964  -12.8839  -36.2513 N   0  0  0  0  0  0  0  0  0  0  0  0
   -8.9108  -11.5128  -36.1574 C   0  0  0  0  0  0  0  0  0  0  0  0
  -10.0024  -11.1328  -35.3756 C   0  0  0  0  0  0  0  0  0  0  0  0
  -10.4025   -9.8273  -35.2257 C   0  0  0  0  0  0  0  0  0  0  0  0
  -11.4632   -9.4711  -34.4644 F   0  0  0  0  0  0  0  0  0  0  0  0
   -9.6758   -8.8624  -35.8885 C   0  0  0  0  0  0  0  0  0  0  0  0
  -10.0640   -7.5143  -35.7523 O   0  0  0  0  0  0  0  0  0  0  0  0
   -8.5882   -9.1580  -36.6773 C   0  0  0  0  0  0  0  0  0  0  0  0
   -7.8803   -8.2024  -37.3254 F   0  0  0  0  0  0  0  0  0  0  0  0
   -8.2363  -10.4975  -36.7871 C   0  0  0  0  0  0  0  0  0  0  0  0
   -6.4065  -12.7549  -37.3201 N   0  0  0  0  0  0  0  0  0  0  0  0
   -5.2952  -13.2682  -37.8549 C   0  0  0  0  0  0  0  0  0  0  0  0
   -5.1755  -14.6396  -37.9188 C   0  0  0  0  0  0  0  0  0  0  0  0
   -4.0481  -15.3095  -38.4594 N   0  0  0  0  0  0  0  0  0  0  0  0
   -2.9633  -14.4896  -38.9745 C   0  0  0  0  0  0  0  0  0  0  0  0
   -4.0465  -16.7161  -38.4643 C   0  0  0  0  0  0  0  0  0  0  0  0
   -3.2119  -17.3110  -39.2276 O   0  0  0  0  0  0  0  0  0  0  0  0
   -4.9806  -17.5386  -37.6129 C   0  0  0  0  0  0  0  0  0  0  0  0
   -5.1753  -18.8915  -38.2776 C   0  0  0  0  0  0  0  0  0  0  0  0
   -4.2760  -17.7763  -36.3001 C   0  0  0  0  0  0  0  0  0  0  0  0
  1  2  1  0
  2  3  1  0
  2  4  1  0
  4  5  1  0
  5  6  1  0
  6  7  1  0
  7  8  2  0
  8  9  1  0
  9 10  1  0
 10 11  1  0
 11 12  2  0
 12 13  1  0
 13 14  1  0
 13 15  2  0
 15 16  1  0
 15 17  1  0
 17 18  1  0
 17 19  2  0
  9 20  2  0
 20 21  1  0
 21 22  2  0
 22 23  1  0
 23 24  1  0
 23 25  1  0
 25 26  2  0
 25 27  1  0
 27 28  1  0
 27 29  1  0
 27  6  1  0
 22  7  1  0
 19 11  1  0
M  END
>  <shape_align_shape_tanimoto>  (3) 
0.6403365872345268

>  <shape_align_color_tanimoto>  (3) 
0.10669111298383865

>  <metric>  (3) 
combo

>  <metric_score>  (3) 
0.374

>  <template_pid>  (3) 
6G3C

>  <template_shape_score>  (3) 
0.640

>  <template_color_score>  (3) 
0.107

>  <template_combo_score>  (3) 
0.374

$$$$
