5G3M_shape_pose
     RDKit          3D

 16 17  0  0  0  0  0  0  0  0999 V2000
   22.3838    3.1531   10.8702 N   0  0  0  0  0  0  0  0  0  0  0  0
   23.4470    3.1693    9.9253 C   0  0  0  0  0  0  0  0  0  0  0  0
   23.2492    2.6049    8.7961 O   0  0  0  0  0  0  0  0  0  0  0  0
   24.7217    3.8090   10.2341 C   0  0  0  0  0  0  0  0  0  0  0  0
   24.9302    4.4198   11.4611 C   0  0  0  0  0  0  0  0  0  0  0  0
   26.1493    5.0153   11.7187 C   0  0  0  0  0  0  0  0  0  0  0  0
   27.1656    5.0051   10.7559 C   0  0  0  0  0  0  0  0  0  0  0  0
   28.4334    5.6626   11.1125 C   0  0  0  0  0  0  0  0  0  0  0  0
   28.5123    7.0855   10.7699 C   0  0  0  0  0  0  0  0  0  0  0  0
   28.1102    8.0571   11.6567 C   0  0  0  0  0  0  0  0  0  0  0  0
   28.1949    9.3831   11.3102 C   0  0  0  0  0  0  0  0  0  0  0  0
   28.6778    9.7358   10.0864 C   0  0  0  0  0  0  0  0  0  0  0  0
   29.0839    8.7850    9.1876 C   0  0  0  0  0  0  0  0  0  0  0  0
   29.0097    7.4402    9.5103 C   0  0  0  0  0  0  0  0  0  0  0  0
   26.9375    4.3917    9.5409 C   0  0  0  0  0  0  0  0  0  0  0  0
   25.7157    3.7929    9.2783 C   0  0  0  0  0  0  0  0  0  0  0  0
  1  2  1  0
  2  3  2  0
  2  4  1  0
  4  5  2  0
  5  6  1  0
  6  7  2  0
  7  8  1  0
  8  9  1  0
  9 10  2  0
 10 11  1  0
 11 12  2  0
 12 13  1  0
 13 14  2  0
  7 15  1  0
 15 16  2  0
 16  4  1  0
 14  9  1  0
M  END
>  <shape_align_shape_tanimoto>  (1) 
0.6700382057727079

>  <shape_align_color_tanimoto>  (1) 
0.10509557485657942

>  <metric>  (1) 
shape

>  <metric_score>  (1) 
0.670

>  <template_pid>  (1) 
5G3M

>  <template_shape_score>  (1) 
0.670

>  <template_color_score>  (1) 
0.105

>  <template_combo_score>  (1) 
0.388

$$$$
5G3M_color_pose
     RDKit          3D

 16 17  0  0  0  0  0  0  0  0999 V2000
   29.3689    6.7825   10.4091 N   0  0  0  0  0  0  0  0  0  0  0  0
   28.2125    6.5996   11.2223 C   0  0  0  0  0  0  0  0  0  0  0  0
   28.2348    7.1604   12.3606 O   0  0  0  0  0  0  0  0  0  0  0  0
   27.0818    5.8233   10.7805 C   0  0  0  0  0  0  0  0  0  0  0  0
   27.0452    5.2095    9.5470 C   0  0  0  0  0  0  0  0  0  0  0  0
   25.9535    4.4757    9.1528 C   0  0  0  0  0  0  0  0  0  0  0  0
   24.8801    4.3400    9.9783 C   0  0  0  0  0  0  0  0  0  0  0  0
   23.6526    3.5560    9.6201 C   0  0  0  0  0  0  0  0  0  0  0  0
   23.8116    2.1609   10.0500 C   0  0  0  0  0  0  0  0  0  0  0  0
   24.3574    1.1757    9.2561 C   0  0  0  0  0  0  0  0  0  0  0  0
   24.4790   -0.1144    9.7180 C   0  0  0  0  0  0  0  0  0  0  0  0
   24.0603   -0.4629   10.9857 C   0  0  0  0  0  0  0  0  0  0  0  0
   23.5080    0.5155   11.8001 C   0  0  0  0  0  0  0  0  0  0  0  0
   23.3978    1.8058   11.3092 C   0  0  0  0  0  0  0  0  0  0  0  0
   24.9211    4.9541   11.2077 C   0  0  0  0  0  0  0  0  0  0  0  0
   25.9945    5.6900   11.6253 C   0  0  0  0  0  0  0  0  0  0  0  0
  1  2  1  0
  2  3  2  0
  2  4  1  0
  4  5  2  0
  5  6  1  0
  6  7  2  0
  7  8  1  0
  8  9  1  0
  9 10  2  0
 10 11  1  0
 11 12  2  0
 12 13  1  0
 13 14  2  0
  7 15  1  0
 15 16  2  0
 16  4  1  0
 14  9  1  0
M  END
>  <shape_align_shape_tanimoto>  (2) 
0.61665318150650339

>  <shape_align_color_tanimoto>  (2) 
0.13581421532660345

>  <metric>  (2) 
color

>  <metric_score>  (2) 
0.136

>  <template_pid>  (2) 
5G3M

>  <template_shape_score>  (2) 
0.617

>  <template_color_score>  (2) 
0.136

>  <template_combo_score>  (2) 
0.376

$$$$
5G3M_combo_pose
     RDKit          3D

 16 17  0  0  0  0  0  0  0  0999 V2000
   22.3838    3.1531   10.8702 N   0  0  0  0  0  0  0  0  0  0  0  0
   23.4470    3.1693    9.9253 C   0  0  0  0  0  0  0  0  0  0  0  0
   23.2492    2.6049    8.7961 O   0  0  0  0  0  0  0  0  0  0  0  0
   24.7217    3.8090   10.2341 C   0  0  0  0  0  0  0  0  0  0  0  0
   24.9302    4.4198   11.4611 C   0  0  0  0  0  0  0  0  0  0  0  0
   26.1493    5.0153   11.7187 C   0  0  0  0  0  0  0  0  0  0  0  0
   27.1656    5.0051   10.7559 C   0  0  0  0  0  0  0  0  0  0  0  0
   28.4334    5.6626   11.1125 C   0  0  0  0  0  0  0  0  0  0  0  0
   28.5123    7.0855   10.7699 C   0  0  0  0  0  0  0  0  0  0  0  0
   28.1102    8.0571   11.6567 C   0  0  0  0  0  0  0  0  0  0  0  0
   28.1949    9.3831   11.3102 C   0  0  0  0  0  0  0  0  0  0  0  0
   28.6778    9.7358   10.0864 C   0  0  0  0  0  0  0  0  0  0  0  0
   29.0839    8.7850    9.1876 C   0  0  0  0  0  0  0  0  0  0  0  0
   29.0097    7.4402    9.5103 C   0  0  0  0  0  0  0  0  0  0  0  0
   26.9375    4.3917    9.5409 C   0  0  0  0  0  0  0  0  0  0  0  0
   25.7157    3.7929    9.2783 C   0  0  0  0  0  0  0  0  0  0  0  0
  1  2  1  0
  2  3  2  0
  2  4  1  0
  4  5  2  0
  5  6  1  0
  6  7  2  0
  7  8  1  0
  8  9  1  0
  9 10  2  0
 10 11  1  0
 11 12  2  0
 12 13  1  0
 13 14  2  0
  7 15  1  0
 15 16  2  0
 16  4  1  0
 14  9  1  0
M  END
>  <shape_align_shape_tanimoto>  (3) 
0.6700382057727079

>  <shape_align_color_tanimoto>  (3) 
0.10509557485657942

>  <metric>  (3) 
combo

>  <metric_score>  (3) 
0.388

>  <template_pid>  (3) 
5G3M

>  <template_shape_score>  (3) 
0.670

>  <template_color_score>  (3) 
0.105

>  <template_combo_score>  (3) 
0.388

$$$$
