6MHB_shape_pose
     RDKit          3D

 17 18  0  0  0  0  0  0  0  0999 V2000
   -1.3040   13.1247   25.5057 C   0  0  0  0  0  0  0  0  0  0  0  0
   -2.2807   12.6234   24.4379 C   0  0  0  0  0  0  0  0  0  0  0  0
   -2.5807   11.2113   24.8045 C   0  0  0  0  0  0  0  0  0  0  0  0
   -2.0313   10.7276   25.8279 O   0  0  0  0  0  0  0  0  0  0  0  0
   -3.4465   10.3973   24.0618 N   0  0  0  0  0  0  0  0  0  0  0  0
   -3.6777    9.0068   24.5111 C   0  0  0  0  0  0  0  0  0  0  0  0
   -4.3482    8.3886   25.1665 N   0  0  0  0  0  0  0  0  0  0  0  0
   -4.3873    7.1014   25.4420 C   0  0  0  0  0  0  0  0  0  0  0  0
   -5.3367    6.4415   26.3291 C   0  0  0  0  0  0  0  0  0  0  0  0
   -5.2904    5.0785   26.5505 C   0  0  0  0  0  0  0  0  0  0  0  0
   -6.1736    4.4240   27.3834 C   0  0  0  0  0  0  0  0  0  0  0  0
   -7.1390    5.1384   28.0226 C   0  0  0  0  0  0  0  0  0  0  0  0
   -8.2570    4.3135   29.0763 Cl  0  0  0  0  0  0  0  0  0  0  0  0
   -7.2355    6.5029   27.8412 C   0  0  0  0  0  0  0  0  0  0  0  0
   -6.3387    7.1276   27.0030 C   0  0  0  0  0  0  0  0  0  0  0  0
   -3.3920    6.3885   24.7786 C   0  0  0  0  0  0  0  0  0  0  0  0
   -2.4876    7.7057   23.8030 S   0  0  0  0  0  0  0  0  0  0  0  0
  1  2  1  0
  2  3  1  0
  3  4  2  0
  3  5  1  0
  5  6  1  0
  6  7  2  0
  7  8  1  0
  8  9  1  0
  9 10  2  0
 10 11  1  0
 11 12  2  0
 12 13  1  0
 12 14  1  0
 14 15  2  0
  8 16  2  0
 16 17  1  0
 17  6  1  0
 15  9  1  0
M  END
>  <shape_align_shape_tanimoto>  (1) 
0.45056379687429055

>  <shape_align_color_tanimoto>  (1) 
0.010793907027090014

>  <metric>  (1) 
shape

>  <metric_score>  (1) 
0.451

>  <template_pid>  (1) 
6MHB

>  <template_shape_score>  (1) 
0.451

>  <template_color_score>  (1) 
0.011

>  <template_combo_score>  (1) 
0.231

$$$$
6MHB_color_pose
     RDKit          3D

 17 18  0  0  0  0  0  0  0  0999 V2000
   -2.9992    6.1261   25.0577 C   0  0  0  0  0  0  0  0  0  0  0  0
   -4.0182    7.2230   24.9713 C   0  0  0  0  0  0  0  0  0  0  0  0
   -3.3479    8.5695   24.9554 C   0  0  0  0  0  0  0  0  0  0  0  0
   -2.1131    8.7127   25.0084 O   0  0  0  0  0  0  0  0  0  0  0  0
   -4.1698    9.6944   24.8772 N   0  0  0  0  0  0  0  0  0  0  0  0
   -3.4273   10.9845   24.8667 C   0  0  0  0  0  0  0  0  0  0  0  0
   -2.3949   11.4242   24.8995 N   0  0  0  0  0  0  0  0  0  0  0  0
   -1.9543   12.6707   24.8764 C   0  0  0  0  0  0  0  0  0  0  0  0
   -0.5540   13.0833   24.9274 C   0  0  0  0  0  0  0  0  0  0  0  0
   -0.2149   14.4213   24.8962 C   0  0  0  0  0  0  0  0  0  0  0  0
    1.0892   14.8721   24.9414 C   0  0  0  0  0  0  0  0  0  0  0  0
    2.1212   13.9441   25.0222 C   0  0  0  0  0  0  0  0  0  0  0  0
    3.7925   14.4865   25.0813 Cl  0  0  0  0  0  0  0  0  0  0  0  0
    1.8158   12.5947   25.0553 C   0  0  0  0  0  0  0  0  0  0  0  0
    0.4956   12.1886   25.0078 C   0  0  0  0  0  0  0  0  0  0  0  0
   -2.9969   13.5854   24.7956 C   0  0  0  0  0  0  0  0  0  0  0  0
   -4.5083   12.5439   24.7615 S   0  0  0  0  0  0  0  0  0  0  0  0
  1  2  1  0
  2  3  1  0
  3  4  2  0
  3  5  1  0
  5  6  1  0
  6  7  2  0
  7  8  1  0
  8  9  1  0
  9 10  2  0
 10 11  1  0
 11 12  2  0
 12 13  1  0
 12 14  1  0
 14 15  2  0
  8 16  2  0
 16 17  1  0
 17  6  1  0
 15  9  1  0
M  END
>  <shape_align_shape_tanimoto>  (2) 
0.36848739306337064

>  <shape_align_color_tanimoto>  (2) 
0.085737784758417535

>  <metric>  (2) 
color

>  <metric_score>  (2) 
0.086

>  <template_pid>  (2) 
6MHB

>  <template_shape_score>  (2) 
0.368

>  <template_color_score>  (2) 
0.086

>  <template_combo_score>  (2) 
0.227

$$$$
6MHB_combo_pose
     RDKit          3D

 17 18  0  0  0  0  0  0  0  0999 V2000
   -3.8299    6.1823   23.9996 C   0  0  0  0  0  0  0  0  0  0  0  0
   -3.8755    7.0556   25.2552 C   0  0  0  0  0  0  0  0  0  0  0  0
   -3.4061    8.4129   24.8864 C   0  0  0  0  0  0  0  0  0  0  0  0
   -3.0741    8.5986   23.6855 O   0  0  0  0  0  0  0  0  0  0  0  0
   -3.3501    9.4296   25.8795 N   0  0  0  0  0  0  0  0  0  0  0  0
   -2.8703   10.7727   25.4488 C   0  0  0  0  0  0  0  0  0  0  0  0
   -1.9640   11.4143   25.3306 N   0  0  0  0  0  0  0  0  0  0  0  0
   -1.7733   12.6535   24.9007 C   0  0  0  0  0  0  0  0  0  0  0  0
   -0.4868   13.3370   24.8161 C   0  0  0  0  0  0  0  0  0  0  0  0
    0.7086   12.7476   25.1866 C   0  0  0  0  0  0  0  0  0  0  0  0
    1.9213   13.4388   25.0896 C   0  0  0  0  0  0  0  0  0  0  0  0
    1.9552   14.7349   24.6186 C   0  0  0  0  0  0  0  0  0  0  0  0
    3.4948   15.5674   24.5119 Cl  0  0  0  0  0  0  0  0  0  0  0  0
    0.7678   15.3307   24.2468 C   0  0  0  0  0  0  0  0  0  0  0  0
   -0.4072   14.6337   24.3507 C   0  0  0  0  0  0  0  0  0  0  0  0
   -2.9589   13.2678   24.5223 C   0  0  0  0  0  0  0  0  0  0  0  0
   -4.2537   11.9468   24.8396 S   0  0  0  0  0  0  0  0  0  0  0  0
  1  2  1  0
  2  3  1  0
  3  4  2  0
  3  5  1  0
  5  6  1  0
  6  7  2  0
  7  8  1  0
  8  9  1  0
  9 10  2  0
 10 11  1  0
 11 12  2  0
 12 13  1  0
 12 14  1  0
 14 15  2  0
  8 16  2  0
 16 17  1  0
 17  6  1  0
 15  9  1  0
M  END
>  <shape_align_shape_tanimoto>  (3) 
0.4149919966786898

>  <shape_align_color_tanimoto>  (3) 
0.075872709961943452

>  <metric>  (3) 
combo

>  <metric_score>  (3) 
0.245

>  <template_pid>  (3) 
6MHB

>  <template_shape_score>  (3) 
0.415

>  <template_color_score>  (3) 
0.076

>  <template_combo_score>  (3) 
0.245

$$$$
