6UFO_shape_pose
     RDKit          3D

 16 15  0  0  0  0  0  0  0  0999 V2000
    1.4526   80.9124   82.2246 C   0  0  0  0  0  0  0  0  0  0  0  0
    1.7256   80.3643   80.9592 O   0  0  0  0  0  0  0  0  0  0  0  0
    3.0098   79.8404   80.9862 C   0  0  0  0  0  0  0  0  0  0  0  0
    3.4712   79.2130   79.7179 C   0  0  0  0  0  0  0  0  0  0  0  0
    4.8036   78.7762   79.9684 O   0  0  0  0  0  0  0  0  0  0  0  0
    3.5230   80.1521   78.6951 O   0  0  0  0  0  0  0  0  0  0  0  0
    2.7371   77.9639   79.3080 C   0  0  0  0  0  0  0  0  0  0  0  0
    1.2778   78.1256   79.0812 C   0  0  0  0  0  0  0  0  0  0  0  0
    0.6020   76.8324   78.6561 C   0  0  0  0  0  0  0  0  0  0  0  0
    0.7340   75.7335   79.6628 C   0  0  0  0  0  0  0  0  0  0  0  0
    0.0241   74.5121   79.1229 C   0  0  0  0  0  0  0  0  0  0  0  0
    0.1205   73.3909   80.0763 N   0  0  0  0  0  0  0  0  0  0  0  0
    1.3739   72.7486   80.0324 C   0  0  0  0  0  0  0  0  0  0  0  0
    1.9822   72.2193   81.2578 C   0  0  0  0  0  0  0  0  0  0  0  0
    1.2768   71.1812   82.0379 C   0  0  0  0  0  0  0  0  0  0  0  0
   -0.0234   71.6004   82.5259 N   0  0  0  0  0  0  0  0  0  0  0  0
  1  2  1  0
  2  3  1  0
  3  4  1  0
  4  5  1  0
  4  6  1  0
  4  7  1  0
  7  8  1  0
  8  9  1  0
  9 10  1  0
 10 11  1  0
 11 12  1  0
 12 13  1  0
 13 14  1  0
 14 15  1  0
 15 16  1  0
M  CHG  2  12   1  16   1
M  END
>  <shape_align_shape_tanimoto>  (1) 
0.65643403371015263

>  <shape_align_color_tanimoto>  (1) 
0.012552916703973774

>  <metric>  (1) 
shape

>  <metric_score>  (1) 
0.656

>  <template_pid>  (1) 
6UFO

>  <template_shape_score>  (1) 
0.656

>  <template_color_score>  (1) 
0.013

>  <template_combo_score>  (1) 
0.334

$$$$
6UFO_color_pose
     RDKit          3D

 16 15  0  0  0  0  0  0  0  0999 V2000
    5.2619   77.4088   79.6200 C   0  0  0  0  0  0  0  0  0  0  0  0
    4.6709   77.6611   80.8151 O   0  0  0  0  0  0  0  0  0  0  0  0
    3.3518   77.9074   80.7583 C   0  0  0  0  0  0  0  0  0  0  0  0
    2.9195   79.0679   79.9569 C   0  0  0  0  0  0  0  0  0  0  0  0
    3.5662   80.1773   80.5257 O   0  0  0  0  0  0  0  0  0  0  0  0
    3.2141   78.9962   78.6345 O   0  0  0  0  0  0  0  0  0  0  0  0
    1.4681   79.2902   80.1727 C   0  0  0  0  0  0  0  0  0  0  0  0
    0.5842   78.1579   79.8176 C   0  0  0  0  0  0  0  0  0  0  0  0
    0.6612   77.7686   78.3830 C   0  0  0  0  0  0  0  0  0  0  0  0
   -0.2764   76.6401   78.0680 C   0  0  0  0  0  0  0  0  0  0  0  0
   -0.0559   75.3982   78.8035 C   0  0  0  0  0  0  0  0  0  0  0  0
    1.2214   74.7962   78.6181 N   0  0  0  0  0  0  0  0  0  0  0  0
    1.4258   73.6519   79.4384 C   0  0  0  0  0  0  0  0  0  0  0  0
    0.6483   73.6590   80.7094 C   0  0  0  0  0  0  0  0  0  0  0  0
    0.9261   72.4203   81.5075 C   0  0  0  0  0  0  0  0  0  0  0  0
    2.3071   72.2895   81.8567 N   0  0  0  0  0  0  0  0  0  0  0  0
  1  2  1  0
  2  3  1  0
  3  4  1  0
  4  5  1  0
  4  6  1  0
  4  7  1  0
  7  8  1  0
  8  9  1  0
  9 10  1  0
 10 11  1  0
 11 12  1  0
 12 13  1  0
 13 14  1  0
 14 15  1  0
 15 16  1  0
M  CHG  2  12   1  16   1
M  END
>  <shape_align_shape_tanimoto>  (2) 
0.51984306232177757

>  <shape_align_color_tanimoto>  (2) 
0.072021520739574657

>  <metric>  (2) 
color

>  <metric_score>  (2) 
0.072

>  <template_pid>  (2) 
6UFO

>  <template_shape_score>  (2) 
0.520

>  <template_color_score>  (2) 
0.072

>  <template_combo_score>  (2) 
0.296

$$$$
6UFO_combo_pose
     RDKit          3D

 16 15  0  0  0  0  0  0  0  0999 V2000
    1.5019   71.9571   81.7904 C   0  0  0  0  0  0  0  0  0  0  0  0
    0.8064   72.3213   80.6535 O   0  0  0  0  0  0  0  0  0  0  0  0
    0.8495   73.7121   80.4625 C   0  0  0  0  0  0  0  0  0  0  0  0
    0.0717   74.0129   79.2108 C   0  0  0  0  0  0  0  0  0  0  0  0
    0.6063   73.3841   78.1138 O   0  0  0  0  0  0  0  0  0  0  0  0
   -1.2350   73.5211   79.4106 O   0  0  0  0  0  0  0  0  0  0  0  0
   -0.0673   75.4973   79.0460 C   0  0  0  0  0  0  0  0  0  0  0  0
    1.2613   76.2181   78.9360 C   0  0  0  0  0  0  0  0  0  0  0  0
    0.9427   77.6763   78.7769 C   0  0  0  0  0  0  0  0  0  0  0  0
    2.1362   78.5641   78.6502 C   0  0  0  0  0  0  0  0  0  0  0  0
    3.0869   78.5724   79.7633 C   0  0  0  0  0  0  0  0  0  0  0  0
    2.5978   78.9743   81.0453 N   0  0  0  0  0  0  0  0  0  0  0  0
    1.7424   80.0928   81.0834 C   0  0  0  0  0  0  0  0  0  0  0  0
    2.4353   81.4304   81.1236 C   0  0  0  0  0  0  0  0  0  0  0  0
    3.3304   81.6318   82.3089 C   0  0  0  0  0  0  0  0  0  0  0  0
    2.6024   81.5346   83.5617 N   0  0  0  0  0  0  0  0  0  0  0  0
  1  2  1  0
  2  3  1  0
  3  4  1  0
  4  5  1  0
  4  6  1  0
  4  7  1  0
  7  8  1  0
  8  9  1  0
  9 10  1  0
 10 11  1  0
 11 12  1  0
 12 13  1  0
 13 14  1  0
 14 15  1  0
 15 16  1  0
M  CHG  2  12   1  16   1
M  END
>  <shape_align_shape_tanimoto>  (3) 
0.63107316061372531

>  <shape_align_color_tanimoto>  (3) 
0.04666133638341298

>  <metric>  (3) 
combo

>  <metric_score>  (3) 
0.339

>  <template_pid>  (3) 
6UFO

>  <template_shape_score>  (3) 
0.631

>  <template_color_score>  (3) 
0.047

>  <template_combo_score>  (3) 
0.339

$$$$
