6F6N_shape_pose
     RDKit          3D

 20 22  0  0  0  0  0  0  0  0999 V2000
   22.5458  -65.0127   19.1195 C   0  0  0  0  0  0  0  0  0  0  0  0
   22.8528  -64.5482   17.7564 N   0  0  0  0  0  0  0  0  0  0  0  0
   24.1132  -63.8998   17.8365 C   0  0  1  0  0  0  0  0  0  0  0  0
   25.1647  -64.9479   18.1343 C   0  0  0  0  0  0  0  0  0  0  0  0
   26.5543  -64.5476   17.7451 C   0  0  0  0  0  0  0  0  0  0  0  0
   26.6339  -63.0435   17.7575 C   0  0  1  0  0  0  0  0  0  0  0  0
   27.9927  -62.5175   17.6798 C   0  0  0  0  0  0  0  0  0  0  0  0
   28.2875  -61.2997   18.2587 C   0  0  0  0  0  0  0  0  0  0  0  0
   29.5682  -60.7697   18.2040 C   0  0  0  0  0  0  0  0  0  0  0  0
   30.5949  -61.4483   17.5645 C   0  0  0  0  0  0  0  0  0  0  0  0
   32.1802  -60.7269   17.5321 Cl  0  0  0  0  0  0  0  0  0  0  0  0
   30.3002  -62.6653   16.9861 C   0  0  0  0  0  0  0  0  0  0  0  0
   31.5955  -63.5140   16.1832 Cl  0  0  0  0  0  0  0  0  0  0  0  0
   29.0152  -63.1910   17.0442 C   0  0  0  0  0  0  0  0  0  0  0  0
   25.7787  -62.6116   16.6006 C   0  0  0  0  0  0  0  0  0  0  0  0
   26.2429  -61.8390   15.5787 C   0  0  0  0  0  0  0  0  0  0  0  0
   25.3416  -61.5129   14.5703 C   0  0  0  0  0  0  0  0  0  0  0  0
   24.0265  -61.9596   14.6109 C   0  0  0  0  0  0  0  0  0  0  0  0
   23.5705  -62.7464   15.6604 C   0  0  0  0  0  0  0  0  0  0  0  0
   24.4542  -63.0717   16.6581 C   0  0  0  0  0  0  0  0  0  0  0  0
  1  2  1  0
  3  2  1  6
  3  4  1  0
  4  5  1  0
  5  6  1  0
  6  7  1  6
  7  8  2  0
  8  9  1  0
  9 10  2  0
 10 11  1  0
 10 12  1  0
 12 13  1  0
 12 14  2  0
  6 15  1  0
 15 16  2  0
 16 17  1  0
 17 18  2  0
 18 19  1  0
 19 20  2  0
 20  3  1  0
 14  7  1  0
 20 15  1  0
M  CHG  1   2   1
M  END
>  <shape_align_shape_tanimoto>  (1) 
0.66071331319615922

>  <shape_align_color_tanimoto>  (1) 
0.025682517354165522

>  <metric>  (1) 
shape

>  <metric_score>  (1) 
0.661

>  <template_pid>  (1) 
6F6N

>  <template_shape_score>  (1) 
0.661

>  <template_color_score>  (1) 
0.026

>  <template_combo_score>  (1) 
0.343

$$$$
6F6N_color_pose
     RDKit          3D

 20 22  0  0  0  0  0  0  0  0999 V2000
   27.0436  -60.0821   18.3914 C   0  0  0  0  0  0  0  0  0  0  0  0
   28.4237  -60.5209   18.4309 N   0  0  0  0  0  0  0  0  0  0  0  0
   28.6671  -61.6815   17.6240 C   0  0  1  0  0  0  0  0  0  0  0  0
   28.2240  -62.9580   18.3495 C   0  0  0  0  0  0  0  0  0  0  0  0
   28.1977  -64.0877   17.3559 C   0  0  0  0  0  0  0  0  0  0  0  0
   27.0464  -63.9302   16.3548 C   0  0  1  0  0  0  0  0  0  0  0  0
   25.7780  -64.0150   17.0976 C   0  0  0  0  0  0  0  0  0  0  0  0
   24.5698  -63.5685   16.5800 C   0  0  0  0  0  0  0  0  0  0  0  0
   23.3778  -63.6629   17.2651 C   0  0  0  0  0  0  0  0  0  0  0  0
   23.3235  -64.2128   18.5158 C   0  0  0  0  0  0  0  0  0  0  0  0
   21.7845  -64.3084   19.3423 Cl  0  0  0  0  0  0  0  0  0  0  0  0
   24.5038  -64.6677   19.0629 C   0  0  0  0  0  0  0  0  0  0  0  0
   24.4368  -65.3716   20.6634 Cl  0  0  0  0  0  0  0  0  0  0  0  0
   25.7029  -64.5735   18.3750 C   0  0  0  0  0  0  0  0  0  0  0  0
   27.2972  -62.6126   15.7184 C   0  0  0  0  0  0  0  0  0  0  0  0
   26.7705  -62.3810   14.4640 C   0  0  0  0  0  0  0  0  0  0  0  0
   26.9527  -61.1790   13.7871 C   0  0  0  0  0  0  0  0  0  0  0  0
   27.6813  -60.1584   14.3599 C   0  0  0  0  0  0  0  0  0  0  0  0
   28.2097  -60.3843   15.6117 C   0  0  0  0  0  0  0  0  0  0  0  0
   28.0236  -61.5968   16.2897 C   0  0  0  0  0  0  0  0  0  0  0  0
  1  2  1  0
  3  2  1  1
  3  4  1  0
  4  5  1  0
  5  6  1  0
  6  7  1  1
  7  8  2  0
  8  9  1  0
  9 10  2  0
 10 11  1  0
 10 12  1  0
 12 13  1  0
 12 14  2  0
  6 15  1  0
 15 16  2  0
 16 17  1  0
 17 18  2  0
 18 19  1  0
 19 20  2  0
 20  3  1  0
 14  7  1  0
 20 15  1  0
M  CHG  1   2   1
M  END
>  <shape_align_shape_tanimoto>  (2) 
0.60203423776325005

>  <shape_align_color_tanimoto>  (2) 
0.041081254282414402

>  <metric>  (2) 
color

>  <metric_score>  (2) 
0.041

>  <template_pid>  (2) 
6F6N

>  <template_shape_score>  (2) 
0.602

>  <template_color_score>  (2) 
0.041

>  <template_combo_score>  (2) 
0.322

$$$$
6F6N_combo_pose
     RDKit          3D

 20 22  0  0  0  0  0  0  0  0999 V2000
   22.5458  -65.0127   19.1195 C   0  0  0  0  0  0  0  0  0  0  0  0
   22.8528  -64.5482   17.7564 N   0  0  0  0  0  0  0  0  0  0  0  0
   24.1132  -63.8998   17.8365 C   0  0  1  0  0  0  0  0  0  0  0  0
   25.1647  -64.9479   18.1343 C   0  0  0  0  0  0  0  0  0  0  0  0
   26.5543  -64.5476   17.7451 C   0  0  0  0  0  0  0  0  0  0  0  0
   26.6339  -63.0435   17.7575 C   0  0  1  0  0  0  0  0  0  0  0  0
   27.9927  -62.5175   17.6798 C   0  0  0  0  0  0  0  0  0  0  0  0
   28.2875  -61.2997   18.2587 C   0  0  0  0  0  0  0  0  0  0  0  0
   29.5682  -60.7697   18.2040 C   0  0  0  0  0  0  0  0  0  0  0  0
   30.5949  -61.4483   17.5645 C   0  0  0  0  0  0  0  0  0  0  0  0
   32.1802  -60.7269   17.5321 Cl  0  0  0  0  0  0  0  0  0  0  0  0
   30.3002  -62.6653   16.9861 C   0  0  0  0  0  0  0  0  0  0  0  0
   31.5955  -63.5140   16.1832 Cl  0  0  0  0  0  0  0  0  0  0  0  0
   29.0152  -63.1910   17.0442 C   0  0  0  0  0  0  0  0  0  0  0  0
   25.7787  -62.6116   16.6006 C   0  0  0  0  0  0  0  0  0  0  0  0
   26.2429  -61.8390   15.5787 C   0  0  0  0  0  0  0  0  0  0  0  0
   25.3416  -61.5129   14.5703 C   0  0  0  0  0  0  0  0  0  0  0  0
   24.0265  -61.9596   14.6109 C   0  0  0  0  0  0  0  0  0  0  0  0
   23.5705  -62.7464   15.6604 C   0  0  0  0  0  0  0  0  0  0  0  0
   24.4542  -63.0717   16.6581 C   0  0  0  0  0  0  0  0  0  0  0  0
  1  2  1  0
  3  2  1  6
  3  4  1  0
  4  5  1  0
  5  6  1  0
  6  7  1  6
  7  8  2  0
  8  9  1  0
  9 10  2  0
 10 11  1  0
 10 12  1  0
 12 13  1  0
 12 14  2  0
  6 15  1  0
 15 16  2  0
 16 17  1  0
 17 18  2  0
 18 19  1  0
 19 20  2  0
 20  3  1  0
 14  7  1  0
 20 15  1  0
M  CHG  1   2   1
M  END
>  <shape_align_shape_tanimoto>  (3) 
0.66071331319615922

>  <shape_align_color_tanimoto>  (3) 
0.025682517354165522

>  <metric>  (3) 
combo

>  <metric_score>  (3) 
0.343

>  <template_pid>  (3) 
6F6N

>  <template_shape_score>  (3) 
0.661

>  <template_color_score>  (3) 
0.026

>  <template_combo_score>  (3) 
0.343

$$$$
