4ZZX_shape_pose
     RDKit          3D

 18 19  0  0  0  0  0  0  0  0999 V2000
  -23.4533   10.5889  -21.2184 C   0  0  0  0  0  0  0  0  0  0  0  0
  -24.1632   11.7631  -21.4635 O   0  0  0  0  0  0  0  0  0  0  0  0
  -23.3219   12.8717  -21.5255 C   0  0  0  0  0  0  0  0  0  0  0  0
  -24.0871   14.1646  -21.7934 C   0  0  0  0  0  0  0  0  0  0  0  0
  -23.1459   15.3492  -21.8553 C   0  0  0  0  0  0  0  0  0  0  0  0
  -23.8874   16.5721  -22.1108 N   0  0  0  0  0  0  0  0  0  0  0  0
  -24.4340   17.4224  -21.0730 C   0  0  0  0  0  0  0  0  0  0  0  0
  -25.0902   18.5259  -21.8065 C   0  0  0  0  0  0  0  0  0  0  0  0
  -25.7711   19.6162  -21.2557 C   0  0  0  0  0  0  0  0  0  0  0  0
  -26.3056   20.5271  -22.1404 C   0  0  0  0  0  0  0  0  0  0  0  0
  -26.1664   20.3560  -23.4943 C   0  0  0  0  0  0  0  0  0  0  0  0
  -25.4907   19.2747  -24.0588 C   0  0  0  0  0  0  0  0  0  0  0  0
  -25.3880   19.1669  -25.4990 C   0  0  0  0  0  0  0  0  0  0  0  0
  -25.9966   20.1953  -26.3006 N   0  0  0  0  0  0  0  0  0  0  0  0
  -24.8150   18.2566  -26.1324 O   0  0  0  0  0  0  0  0  0  0  0  0
  -24.9591   18.3685  -23.1701 C   0  0  0  0  0  0  0  0  0  0  0  0
  -24.2037   17.1422  -23.3790 C   0  0  0  0  0  0  0  0  0  0  0  0
  -23.8555   16.6178  -24.4577 O   0  0  0  0  0  0  0  0  0  0  0  0
  1  2  1  0
  2  3  1  0
  3  4  1  0
  4  5  1  0
  5  6  1  0
  6  7  1  0
  7  8  1  0
  8  9  2  0
  9 10  1  0
 10 11  2  0
 11 12  1  0
 12 13  1  0
 13 14  1  0
 13 15  2  0
 12 16  2  0
 16 17  1  0
 17 18  2  0
 17  6  1  0
 16  8  1  0
M  END
>  <shape_align_shape_tanimoto>  (1) 
0.71361127969748539

>  <shape_align_color_tanimoto>  (1) 
0.0013548177944938881

>  <metric>  (1) 
shape

>  <metric_score>  (1) 
0.714

>  <template_pid>  (1) 
4ZZX

>  <template_shape_score>  (1) 
0.714

>  <template_color_score>  (1) 
0.001

>  <template_combo_score>  (1) 
0.357

$$$$
4ZZX_color_pose
     RDKit          3D

 18 19  0  0  0  0  0  0  0  0999 V2000
  -25.3106   14.7418  -23.0953 C   0  0  0  0  0  0  0  0  0  0  0  0
  -24.8452   15.1350  -21.8793 O   0  0  0  0  0  0  0  0  0  0  0  0
  -23.7288   14.5180  -21.4000 C   0  0  0  0  0  0  0  0  0  0  0  0
  -22.5243   14.7555  -22.2466 C   0  0  0  0  0  0  0  0  0  0  0  0
  -22.0868   16.1703  -22.3635 C   0  0  0  0  0  0  0  0  0  0  0  0
  -23.0327   17.0954  -22.9277 N   0  0  0  0  0  0  0  0  0  0  0  0
  -23.1220   17.3619  -24.3523 C   0  0  0  0  0  0  0  0  0  0  0  0
  -24.2863   18.2738  -24.4647 C   0  0  0  0  0  0  0  0  0  0  0  0
  -24.8329   18.7809  -25.6488 C   0  0  0  0  0  0  0  0  0  0  0  0
  -25.8920   19.6418  -25.5453 C   0  0  0  0  0  0  0  0  0  0  0  0
  -26.3677   19.9677  -24.3018 C   0  0  0  0  0  0  0  0  0  0  0  0
  -25.8441   19.4788  -23.1182 C   0  0  0  0  0  0  0  0  0  0  0  0
  -26.4341   19.8980  -21.8636 C   0  0  0  0  0  0  0  0  0  0  0  0
  -27.5502   20.8096  -21.9014 N   0  0  0  0  0  0  0  0  0  0  0  0
  -26.0702   19.5451  -20.7223 O   0  0  0  0  0  0  0  0  0  0  0  0
  -24.7797   18.6129  -23.2258 C   0  0  0  0  0  0  0  0  0  0  0  0
  -24.0103   17.8905  -22.2244 C   0  0  0  0  0  0  0  0  0  0  0  0
  -24.1457   17.9323  -20.9880 O   0  0  0  0  0  0  0  0  0  0  0  0
  1  2  1  0
  2  3  1  0
  3  4  1  0
  4  5  1  0
  5  6  1  0
  6  7  1  0
  7  8  1  0
  8  9  2  0
  9 10  1  0
 10 11  2  0
 11 12  1  0
 12 13  1  0
 13 14  1  0
 13 15  2  0
 12 16  2  0
 16 17  1  0
 17 18  2  0
 17  6  1  0
 16  8  1  0
M  END
>  <shape_align_shape_tanimoto>  (2) 
0.6154295808457354

>  <shape_align_color_tanimoto>  (2) 
0.034454018585698194

>  <metric>  (2) 
color

>  <metric_score>  (2) 
0.034

>  <template_pid>  (2) 
4ZZX

>  <template_shape_score>  (2) 
0.615

>  <template_color_score>  (2) 
0.034

>  <template_combo_score>  (2) 
0.325

$$$$
4ZZX_combo_pose
     RDKit          3D

 18 19  0  0  0  0  0  0  0  0999 V2000
  -23.4533   10.5889  -21.2184 C   0  0  0  0  0  0  0  0  0  0  0  0
  -24.1632   11.7631  -21.4635 O   0  0  0  0  0  0  0  0  0  0  0  0
  -23.3219   12.8717  -21.5255 C   0  0  0  0  0  0  0  0  0  0  0  0
  -24.0871   14.1646  -21.7934 C   0  0  0  0  0  0  0  0  0  0  0  0
  -23.1459   15.3492  -21.8553 C   0  0  0  0  0  0  0  0  0  0  0  0
  -23.8874   16.5721  -22.1108 N   0  0  0  0  0  0  0  0  0  0  0  0
  -24.4340   17.4224  -21.0730 C   0  0  0  0  0  0  0  0  0  0  0  0
  -25.0902   18.5259  -21.8065 C   0  0  0  0  0  0  0  0  0  0  0  0
  -25.7711   19.6162  -21.2557 C   0  0  0  0  0  0  0  0  0  0  0  0
  -26.3056   20.5271  -22.1404 C   0  0  0  0  0  0  0  0  0  0  0  0
  -26.1664   20.3560  -23.4943 C   0  0  0  0  0  0  0  0  0  0  0  0
  -25.4907   19.2747  -24.0588 C   0  0  0  0  0  0  0  0  0  0  0  0
  -25.3880   19.1669  -25.4990 C   0  0  0  0  0  0  0  0  0  0  0  0
  -25.9966   20.1953  -26.3006 N   0  0  0  0  0  0  0  0  0  0  0  0
  -24.8150   18.2566  -26.1324 O   0  0  0  0  0  0  0  0  0  0  0  0
  -24.9591   18.3685  -23.1701 C   0  0  0  0  0  0  0  0  0  0  0  0
  -24.2037   17.1422  -23.3790 C   0  0  0  0  0  0  0  0  0  0  0  0
  -23.8555   16.6178  -24.4577 O   0  0  0  0  0  0  0  0  0  0  0  0
  1  2  1  0
  2  3  1  0
  3  4  1  0
  4  5  1  0
  5  6  1  0
  6  7  1  0
  7  8  1  0
  8  9  2  0
  9 10  1  0
 10 11  2  0
 11 12  1  0
 12 13  1  0
 13 14  1  0
 13 15  2  0
 12 16  2  0
 16 17  1  0
 17 18  2  0
 17  6  1  0
 16  8  1  0
M  END
>  <shape_align_shape_tanimoto>  (3) 
0.71361127969748539

>  <shape_align_color_tanimoto>  (3) 
0.0013548177944938881

>  <metric>  (3) 
combo

>  <metric_score>  (3) 
0.357

>  <template_pid>  (3) 
4ZZX

>  <template_shape_score>  (3) 
0.714

>  <template_color_score>  (3) 
0.001

>  <template_combo_score>  (3) 
0.357

$$$$
