6QTX_shape_pose
     RDKit          3D

 58 60  0  0  0  0  0  0  0  0999 V2000
   -2.3309   -2.9672   22.1481 C   0  0  0  0  0  0  0  0  0  0  0  0
   -3.4786   -2.1671   21.5464 C   0  0  0  0  0  0  0  0  0  0  0  0
   -3.3799   -2.3273   20.0793 C   0  0  0  0  0  0  0  0  0  0  0  0
   -3.3141   -0.7844   21.9833 C   0  0  2  0  0  0  0  0  0  0  0  0
   -3.3731   -0.7449   23.4473 N   0  0  0  0  0  0  0  0  0  0  0  0
   -3.0440    0.4191   24.1623 C   0  0  0  0  0  0  0  0  0  0  0  0
   -2.7423    1.4359   23.4984 O   0  0  0  0  0  0  0  0  0  0  0  0
   -3.0620    0.4015   25.6328 C   0  0  0  0  0  0  0  0  0  0  0  0
   -2.8022    1.7291   26.1292 N   0  0  0  0  0  0  0  0  0  0  0  0
   -3.8302    2.6755   25.8651 C   0  0  0  0  0  0  0  0  0  0  0  0
   -4.8198    2.2082   25.2536 O   0  0  0  0  0  0  0  0  0  0  0  0
   -3.7335    4.0764   26.2852 C   0  0  2  0  0  0  0  0  0  0  0  0
   -4.2867    5.0543   25.3405 C   0  0  0  0  0  0  0  0  0  0  0  0
   -5.7040    4.9030   25.0783 C   0  0  0  0  0  0  0  0  0  0  0  0
   -6.5585    5.5119   25.9777 C   0  0  0  0  0  0  0  0  0  0  0  0
   -7.9168    5.4522   25.8602 C   0  0  0  0  0  0  0  0  0  0  0  0
   -8.4520    4.7651   24.8154 C   0  0  0  0  0  0  0  0  0  0  0  0
   -7.6242    4.1512   23.9052 C   0  0  0  0  0  0  0  0  0  0  0  0
   -6.2787    4.2352   24.0577 C   0  0  0  0  0  0  0  0  0  0  0  0
   -2.3708    4.3609   26.5904 N   0  0  0  0  0  0  0  0  0  0  0  0
   -1.8147    4.3469   27.8752 C   0  0  0  0  0  0  0  0  0  0  0  0
   -2.4344    4.0806   28.8971 O   0  0  0  0  0  0  0  0  0  0  0  0
   -0.3763    4.6803   27.9678 C   0  0  0  0  0  0  0  0  0  0  0  0
    0.0552    4.5950   29.3305 N   0  0  0  0  0  0  0  0  0  0  0  0
   -4.3839    0.1397   21.4314 C   0  0  0  0  0  0  0  0  0  0  0  0
   -5.2995    0.3843   22.1658 O   0  0  0  0  0  0  0  0  0  0  0  0
   -4.1731    0.5998   20.1558 N   0  0  0  0  0  0  0  0  0  0  0  0
   -4.8390    1.4311   19.2795 C   0  0  2  0  0  0  0  0  0  0  0  0
   -4.0064    1.9621   18.1897 C   0  0  0  0  0  0  0  0  0  0  0  0
   -4.6847    2.2398   17.1478 O   0  0  0  0  0  0  0  0  0  0  0  0
   -2.6240    2.1606   18.2507 N   0  0  0  0  0  0  0  0  0  0  0  0
   -1.7422    2.0088   19.4330 C   0  0  0  0  0  0  0  0  0  0  0  0
   -0.7618    1.0698   18.8551 C   0  0  0  0  0  0  0  0  0  0  0  0
   -0.8128    1.2519   17.3421 C   0  0  0  0  0  0  0  0  0  0  0  0
   -1.6510    2.5095   17.2698 C   0  0  1  0  0  0  0  0  0  0  0  0
   -2.0089    2.9137   15.9694 C   0  0  0  0  0  0  0  0  0  0  0  0
   -3.1164    3.0540   15.4433 O   0  0  0  0  0  0  0  0  0  0  0  0
   -0.9124    3.2274   15.0721 N   0  0  0  0  0  0  0  0  0  0  0  0
   -1.2126    3.6501   13.7435 C   0  0  1  0  0  0  0  0  0  0  0  0
   -0.6951    5.0830   13.6090 C   0  0  0  0  0  0  0  0  0  0  0  0
   -0.9583    5.5563   12.3529 O   0  0  0  0  0  0  0  0  0  0  0  0
   -0.3939    2.8695   12.8149 C   0  0  0  0  0  0  0  0  0  0  0  0
   -0.4561    3.0436   11.5591 O   0  0  0  0  0  0  0  0  0  0  0  0
    0.5197    1.8757   13.2190 N   0  0  0  0  0  0  0  0  0  0  0  0
    1.3001    1.1554   12.2036 C   0  0  1  0  0  0  0  0  0  0  0  0
    2.7075    1.3969   12.5650 C   0  0  0  0  0  0  0  0  0  0  0  0
    3.7216    0.8407   11.7146 C   0  0  0  0  0  0  0  0  0  0  0  0
    4.3898   -0.3250   11.8639 C   0  0  0  0  0  0  0  0  0  0  0  0
    5.3378   -0.7608   10.9447 C   0  0  0  0  0  0  0  0  0  0  0  0
    5.6355   -0.0145    9.8377 C   0  0  0  0  0  0  0  0  0  0  0  0
    4.9703    1.1558    9.6819 C   0  0  0  0  0  0  0  0  0  0  0  0
    4.0513    1.5722   10.5769 C   0  0  0  0  0  0  0  0  0  0  0  0
    0.9549   -0.2512   12.3705 C   0  0  0  0  0  0  0  0  0  0  0  0
    1.6238   -1.1146   12.9232 O   0  0  0  0  0  0  0  0  0  0  0  0
   -0.2661   -0.6509   11.8425 O   0  0  0  0  0  0  0  0  0  0  0  0
   -5.6720    2.5616   19.8289 C   0  0  0  0  0  0  0  0  0  0  0  0
   -6.8011    2.0685   20.6304 C   0  0  0  0  0  0  0  0  0  0  0  0
   -4.8496    3.5923   20.5313 C   0  0  0  0  0  0  0  0  0  0  0  0
  1  2  1  0
  2  3  1  0
  2  4  1  0
  4  5  1  1
  5  6  1  0
  6  7  2  0
  6  8  1  0
  8  9  1  0
  9 10  1  0
 10 11  2  0
 10 12  1  0
 12 13  1  6
 13 14  1  0
 14 15  2  0
 15 16  1  0
 16 17  2  0
 17 18  1  0
 18 19  2  0
 12 20  1  0
 20 21  1  0
 21 22  2  0
 21 23  1  0
 23 24  1  0
  4 25  1  0
 25 26  2  0
 25 27  1  0
 28 27  1  1
 28 29  1  0
 29 30  2  0
 29 31  1  0
 31 32  1  0
 32 33  1  0
 33 34  1  0
 34 35  1  0
 35 36  1  6
 36 37  2  0
 36 38  1  0
 38 39  1  0
 39 40  1  1
 40 41  1  0
 39 42  1  0
 42 43  2  0
 42 44  1  0
 44 45  1  0
 45 46  1  1
 46 47  1  0
 47 48  2  0
 48 49  1  0
 49 50  2  0
 50 51  1  0
 51 52  2  0
 45 53  1  0
 53 54  2  0
 53 55  1  0
 28 56  1  0
 56 57  1  0
 56 58  1  0
 19 14  1  0
 35 31  1  0
 52 47  1  0
M  CHG  2  24   1  55  -1
M  END
>  <shape_align_shape_tanimoto>  (1) 
0.50295921467394333

>  <shape_align_color_tanimoto>  (1) 
0.031874582540749423

>  <metric>  (1) 
shape

>  <metric_score>  (1) 
0.503

>  <template_pid>  (1) 
6QTX

>  <template_shape_score>  (1) 
0.503

>  <template_color_score>  (1) 
0.032

>  <template_combo_score>  (1) 
0.267

$$$$
6QTX_color_pose
     RDKit          3D

 58 60  0  0  0  0  0  0  0  0999 V2000
   -6.8720   -1.5075   23.1254 C   0  0  0  0  0  0  0  0  0  0  0  0
   -6.7005   -0.8567   24.4853 C   0  0  0  0  0  0  0  0  0  0  0  0
   -7.7307    0.2353   24.6005 C   0  0  0  0  0  0  0  0  0  0  0  0
   -5.3246   -0.2807   24.6861 C   0  0  2  0  0  0  0  0  0  0  0  0
   -5.0287    0.7243   23.6707 N   0  0  0  0  0  0  0  0  0  0  0  0
   -4.3508    1.8844   24.1537 C   0  0  0  0  0  0  0  0  0  0  0  0
   -4.0924    1.8968   25.3887 O   0  0  0  0  0  0  0  0  0  0  0  0
   -3.9380    3.0334   23.3567 C   0  0  0  0  0  0  0  0  0  0  0  0
   -3.2260    4.0218   24.1928 N   0  0  0  0  0  0  0  0  0  0  0  0
   -3.8017    4.6449   25.3052 C   0  0  0  0  0  0  0  0  0  0  0  0
   -4.9987    4.3499   25.6114 O   0  0  0  0  0  0  0  0  0  0  0  0
   -3.1362    5.6411   26.1810 C   0  0  2  0  0  0  0  0  0  0  0  0
   -1.8475    5.1981   26.7577 C   0  0  0  0  0  0  0  0  0  0  0  0
   -1.8520    4.0109   27.6049 C   0  0  0  0  0  0  0  0  0  0  0  0
   -2.1272    4.1832   28.9600 C   0  0  0  0  0  0  0  0  0  0  0  0
   -2.1442    3.1022   29.8233 C   0  0  0  0  0  0  0  0  0  0  0  0
   -1.8914    1.8525   29.3617 C   0  0  0  0  0  0  0  0  0  0  0  0
   -1.6136    1.6298   28.0335 C   0  0  0  0  0  0  0  0  0  0  0  0
   -1.6014    2.7227   27.1855 C   0  0  0  0  0  0  0  0  0  0  0  0
   -4.0910    6.0784   27.1883 N   0  0  0  0  0  0  0  0  0  0  0  0
   -4.7116    7.3272   27.2141 C   0  0  0  0  0  0  0  0  0  0  0  0
   -4.5295    8.2461   26.3709 O   0  0  0  0  0  0  0  0  0  0  0  0
   -5.6687    7.6125   28.3185 C   0  0  0  0  0  0  0  0  0  0  0  0
   -6.1903    8.9444   28.1507 N   0  0  0  0  0  0  0  0  0  0  0  0
   -4.2773   -1.3573   24.5258 C   0  0  0  0  0  0  0  0  0  0  0  0
   -4.0125   -1.9732   25.6003 O   0  0  0  0  0  0  0  0  0  0  0  0
   -3.6570   -1.6441   23.2913 N   0  0  0  0  0  0  0  0  0  0  0  0
   -2.6359   -2.5951   23.0279 C   0  0  2  0  0  0  0  0  0  0  0  0
   -1.5410   -2.2323   22.1601 C   0  0  0  0  0  0  0  0  0  0  0  0
   -0.6232   -3.1440   22.0064 O   0  0  0  0  0  0  0  0  0  0  0  0
   -1.2787   -1.0502   21.4303 N   0  0  0  0  0  0  0  0  0  0  0  0
   -0.0331   -1.0087   20.6022 C   0  0  0  0  0  0  0  0  0  0  0  0
    0.0333    0.3535   20.0219 C   0  0  0  0  0  0  0  0  0  0  0  0
   -0.9175    1.1969   20.8357 C   0  0  0  0  0  0  0  0  0  0  0  0
   -1.9615    0.1915   21.2757 C   0  0  1  0  0  0  0  0  0  0  0  0
   -2.9888    0.1756   20.1951 C   0  0  0  0  0  0  0  0  0  0  0  0
   -3.2056   -0.9357   19.6218 O   0  0  0  0  0  0  0  0  0  0  0  0
   -3.7198    1.3130   19.7862 N   0  0  0  0  0  0  0  0  0  0  0  0
   -4.6949    1.1563   18.7382 C   0  0  1  0  0  0  0  0  0  0  0  0
   -6.0134    1.6966   19.2379 C   0  0  0  0  0  0  0  0  0  0  0  0
   -5.7895    3.0438   19.5417 O   0  0  0  0  0  0  0  0  0  0  0  0
   -4.3175    1.9394   17.5401 C   0  0  0  0  0  0  0  0  0  0  0  0
   -5.1276    1.8524   16.5544 O   0  0  0  0  0  0  0  0  0  0  0  0
   -3.1630    2.7427   17.4270 N   0  0  0  0  0  0  0  0  0  0  0  0
   -2.9281    3.4398   16.1879 C   0  0  1  0  0  0  0  0  0  0  0  0
   -2.8036    4.9263   16.3621 C   0  0  0  0  0  0  0  0  0  0  0  0
   -4.0146    5.5308   16.9358 C   0  0  0  0  0  0  0  0  0  0  0  0
   -4.1689    5.6725   18.2968 C   0  0  0  0  0  0  0  0  0  0  0  0
   -5.3343    6.2460   18.7930 C   0  0  0  0  0  0  0  0  0  0  0  0
   -6.3537    6.6847   17.9846 C   0  0  0  0  0  0  0  0  0  0  0  0
   -6.1688    6.5289   16.6184 C   0  0  0  0  0  0  0  0  0  0  0  0
   -5.0385    5.9696   16.0841 C   0  0  0  0  0  0  0  0  0  0  0  0
   -1.6513    2.8981   15.6051 C   0  0  0  0  0  0  0  0  0  0  0  0
   -0.8479    2.2848   16.3290 O   0  0  0  0  0  0  0  0  0  0  0  0
   -1.3787    3.0860   14.2613 O   0  0  0  0  0  0  0  0  0  0  0  0
   -3.2840   -3.9152   22.5947 C   0  0  0  0  0  0  0  0  0  0  0  0
   -4.1551   -3.7987   21.3934 C   0  0  0  0  0  0  0  0  0  0  0  0
   -4.0328   -4.4846   23.7534 C   0  0  0  0  0  0  0  0  0  0  0  0
  1  2  1  0
  2  3  1  0
  2  4  1  0
  4  5  1  6
  5  6  1  0
  6  7  2  0
  6  8  1  0
  8  9  1  0
  9 10  1  0
 10 11  2  0
 10 12  1  0
 12 13  1  1
 13 14  1  0
 14 15  2  0
 15 16  1  0
 16 17  2  0
 17 18  1  0
 18 19  2  0
 12 20  1  0
 20 21  1  0
 21 22  2  0
 21 23  1  0
 23 24  1  0
  4 25  1  0
 25 26  2  0
 25 27  1  0
 28 27  1  6
 28 29  1  0
 29 30  2  0
 29 31  1  0
 31 32  1  0
 32 33  1  0
 33 34  1  0
 34 35  1  0
 35 36  1  6
 36 37  2  0
 36 38  1  0
 38 39  1  0
 39 40  1  1
 40 41  1  0
 39 42  1  0
 42 43  2  0
 42 44  1  0
 44 45  1  0
 45 46  1  1
 46 47  1  0
 47 48  2  0
 48 49  1  0
 49 50  2  0
 50 51  1  0
 51 52  2  0
 45 53  1  0
 53 54  2  0
 53 55  1  0
 28 56  1  0
 56 57  1  0
 56 58  1  0
 19 14  1  0
 35 31  1  0
 52 47  1  0
M  CHG  2  24   1  55  -1
M  END
>  <shape_align_shape_tanimoto>  (2) 
0.31894190248458792

>  <shape_align_color_tanimoto>  (2) 
0.089779337854943908

>  <metric>  (2) 
color

>  <metric_score>  (2) 
0.090

>  <template_pid>  (2) 
6QTX

>  <template_shape_score>  (2) 
0.319

>  <template_color_score>  (2) 
0.090

>  <template_combo_score>  (2) 
0.204

$$$$
6QTX_combo_pose
     RDKit          3D

 58 60  0  0  0  0  0  0  0  0999 V2000
   -2.3309   -2.9672   22.1481 C   0  0  0  0  0  0  0  0  0  0  0  0
   -3.4786   -2.1671   21.5464 C   0  0  0  0  0  0  0  0  0  0  0  0
   -3.3799   -2.3273   20.0793 C   0  0  0  0  0  0  0  0  0  0  0  0
   -3.3141   -0.7844   21.9833 C   0  0  2  0  0  0  0  0  0  0  0  0
   -3.3731   -0.7449   23.4473 N   0  0  0  0  0  0  0  0  0  0  0  0
   -3.0440    0.4191   24.1623 C   0  0  0  0  0  0  0  0  0  0  0  0
   -2.7423    1.4359   23.4984 O   0  0  0  0  0  0  0  0  0  0  0  0
   -3.0620    0.4015   25.6328 C   0  0  0  0  0  0  0  0  0  0  0  0
   -2.8022    1.7291   26.1292 N   0  0  0  0  0  0  0  0  0  0  0  0
   -3.8302    2.6755   25.8651 C   0  0  0  0  0  0  0  0  0  0  0  0
   -4.8198    2.2082   25.2536 O   0  0  0  0  0  0  0  0  0  0  0  0
   -3.7335    4.0764   26.2852 C   0  0  2  0  0  0  0  0  0  0  0  0
   -4.2867    5.0543   25.3405 C   0  0  0  0  0  0  0  0  0  0  0  0
   -5.7040    4.9030   25.0783 C   0  0  0  0  0  0  0  0  0  0  0  0
   -6.5585    5.5119   25.9777 C   0  0  0  0  0  0  0  0  0  0  0  0
   -7.9168    5.4522   25.8602 C   0  0  0  0  0  0  0  0  0  0  0  0
   -8.4520    4.7651   24.8154 C   0  0  0  0  0  0  0  0  0  0  0  0
   -7.6242    4.1512   23.9052 C   0  0  0  0  0  0  0  0  0  0  0  0
   -6.2787    4.2352   24.0577 C   0  0  0  0  0  0  0  0  0  0  0  0
   -2.3708    4.3609   26.5904 N   0  0  0  0  0  0  0  0  0  0  0  0
   -1.8147    4.3469   27.8752 C   0  0  0  0  0  0  0  0  0  0  0  0
   -2.4344    4.0806   28.8971 O   0  0  0  0  0  0  0  0  0  0  0  0
   -0.3763    4.6803   27.9678 C   0  0  0  0  0  0  0  0  0  0  0  0
    0.0552    4.5950   29.3305 N   0  0  0  0  0  0  0  0  0  0  0  0
   -4.3839    0.1397   21.4314 C   0  0  0  0  0  0  0  0  0  0  0  0
   -5.2995    0.3843   22.1658 O   0  0  0  0  0  0  0  0  0  0  0  0
   -4.1731    0.5998   20.1558 N   0  0  0  0  0  0  0  0  0  0  0  0
   -4.8390    1.4311   19.2795 C   0  0  2  0  0  0  0  0  0  0  0  0
   -4.0064    1.9621   18.1897 C   0  0  0  0  0  0  0  0  0  0  0  0
   -4.6847    2.2398   17.1478 O   0  0  0  0  0  0  0  0  0  0  0  0
   -2.6240    2.1606   18.2507 N   0  0  0  0  0  0  0  0  0  0  0  0
   -1.7422    2.0088   19.4330 C   0  0  0  0  0  0  0  0  0  0  0  0
   -0.7618    1.0698   18.8551 C   0  0  0  0  0  0  0  0  0  0  0  0
   -0.8128    1.2519   17.3421 C   0  0  0  0  0  0  0  0  0  0  0  0
   -1.6510    2.5095   17.2698 C   0  0  1  0  0  0  0  0  0  0  0  0
   -2.0089    2.9137   15.9694 C   0  0  0  0  0  0  0  0  0  0  0  0
   -3.1164    3.0540   15.4433 O   0  0  0  0  0  0  0  0  0  0  0  0
   -0.9124    3.2274   15.0721 N   0  0  0  0  0  0  0  0  0  0  0  0
   -1.2126    3.6501   13.7435 C   0  0  1  0  0  0  0  0  0  0  0  0
   -0.6951    5.0830   13.6090 C   0  0  0  0  0  0  0  0  0  0  0  0
   -0.9583    5.5563   12.3529 O   0  0  0  0  0  0  0  0  0  0  0  0
   -0.3939    2.8695   12.8149 C   0  0  0  0  0  0  0  0  0  0  0  0
   -0.4561    3.0436   11.5591 O   0  0  0  0  0  0  0  0  0  0  0  0
    0.5197    1.8757   13.2190 N   0  0  0  0  0  0  0  0  0  0  0  0
    1.3001    1.1554   12.2036 C   0  0  1  0  0  0  0  0  0  0  0  0
    2.7075    1.3969   12.5650 C   0  0  0  0  0  0  0  0  0  0  0  0
    3.7216    0.8407   11.7146 C   0  0  0  0  0  0  0  0  0  0  0  0
    4.3898   -0.3250   11.8639 C   0  0  0  0  0  0  0  0  0  0  0  0
    5.3378   -0.7608   10.9447 C   0  0  0  0  0  0  0  0  0  0  0  0
    5.6355   -0.0145    9.8377 C   0  0  0  0  0  0  0  0  0  0  0  0
    4.9703    1.1558    9.6819 C   0  0  0  0  0  0  0  0  0  0  0  0
    4.0513    1.5722   10.5769 C   0  0  0  0  0  0  0  0  0  0  0  0
    0.9549   -0.2512   12.3705 C   0  0  0  0  0  0  0  0  0  0  0  0
    1.6238   -1.1146   12.9232 O   0  0  0  0  0  0  0  0  0  0  0  0
   -0.2661   -0.6509   11.8425 O   0  0  0  0  0  0  0  0  0  0  0  0
   -5.6720    2.5616   19.8289 C   0  0  0  0  0  0  0  0  0  0  0  0
   -6.8011    2.0685   20.6304 C   0  0  0  0  0  0  0  0  0  0  0  0
   -4.8496    3.5923   20.5313 C   0  0  0  0  0  0  0  0  0  0  0  0
  1  2  1  0
  2  3  1  0
  2  4  1  0
  4  5  1  1
  5  6  1  0
  6  7  2  0
  6  8  1  0
  8  9  1  0
  9 10  1  0
 10 11  2  0
 10 12  1  0
 12 13  1  6
 13 14  1  0
 14 15  2  0
 15 16  1  0
 16 17  2  0
 17 18  1  0
 18 19  2  0
 12 20  1  0
 20 21  1  0
 21 22  2  0
 21 23  1  0
 23 24  1  0
  4 25  1  0
 25 26  2  0
 25 27  1  0
 28 27  1  1
 28 29  1  0
 29 30  2  0
 29 31  1  0
 31 32  1  0
 32 33  1  0
 33 34  1  0
 34 35  1  0
 35 36  1  6
 36 37  2  0
 36 38  1  0
 38 39  1  0
 39 40  1  1
 40 41  1  0
 39 42  1  0
 42 43  2  0
 42 44  1  0
 44 45  1  0
 45 46  1  1
 46 47  1  0
 47 48  2  0
 48 49  1  0
 49 50  2  0
 50 51  1  0
 51 52  2  0
 45 53  1  0
 53 54  2  0
 53 55  1  0
 28 56  1  0
 56 57  1  0
 56 58  1  0
 19 14  1  0
 35 31  1  0
 52 47  1  0
M  CHG  2  24   1  55  -1
M  END
>  <shape_align_shape_tanimoto>  (3) 
0.50295921467394333

>  <shape_align_color_tanimoto>  (3) 
0.031874582540749423

>  <metric>  (3) 
combo

>  <metric_score>  (3) 
0.267

>  <template_pid>  (3) 
6QTX

>  <template_shape_score>  (3) 
0.503

>  <template_color_score>  (3) 
0.032

>  <template_combo_score>  (3) 
0.267

$$$$
