6P8X_shape_pose
     RDKit          3D

 33 36  0  0  0  0  0  0  0  0999 V2000
    1.3678   10.9632   -2.4719 C   0  0  0  0  0  0  0  0  0  0  0  0
    0.7622   10.3605   -3.6912 C   0  0  0  0  0  0  0  0  0  0  0  0
    1.3783    9.0355   -4.0414 C   0  0  0  0  0  0  0  0  0  0  0  0
    2.2837    8.5721   -3.3322 O   0  0  0  0  0  0  0  0  0  0  0  0
    0.8726    8.3750   -5.1956 N   0  0  0  0  0  0  0  0  0  0  0  0
   -0.1491    8.6233   -6.2220 C   0  0  0  0  0  0  0  0  0  0  0  0
   -0.2144    7.1618   -6.5526 C   0  0  0  0  0  0  0  0  0  0  0  0
   -0.3039    6.7720   -7.9129 N   0  0  0  0  0  0  0  0  0  0  0  0
   -1.3239    5.9102   -8.3379 C   0  0  0  0  0  0  0  0  0  0  0  0
   -2.1468    5.5029   -7.4646 O   0  0  0  0  0  0  0  0  0  0  0  0
   -1.3953    5.5192   -9.7652 C   0  0  0  0  0  0  0  0  0  0  0  0
   -2.4457    4.6631  -10.0874 O   0  0  0  0  0  0  0  0  0  0  0  0
   -3.7897    4.8994   -9.9615 C   0  0  0  0  0  0  0  0  0  0  0  0
   -4.3534    6.0614   -9.4890 C   0  0  0  0  0  0  0  0  0  0  0  0
   -5.7172    6.2529   -9.3814 C   0  0  0  0  0  0  0  0  0  0  0  0
   -6.5564    5.2323   -9.7656 C   0  0  0  0  0  0  0  0  0  0  0  0
   -8.4431    5.5198   -9.6084 Br  0  0  0  0  0  0  0  0  0  0  0  0
   -6.0327    4.0465  -10.2468 C   0  0  0  0  0  0  0  0  0  0  0  0
   -4.6586    3.8800  -10.3445 C   0  0  0  0  0  0  0  0  0  0  0  0
   -4.1762    2.6016  -10.8600 C   0  0  0  0  0  0  0  0  0  0  0  0
   -3.9656    1.6995   -9.9970 O   0  0  0  0  0  0  0  0  0  0  0  0
   -3.9597    2.3960  -12.2555 N   0  0  0  0  0  0  0  0  0  0  0  0
   -4.1483    3.3038  -13.3621 C   0  0  0  0  0  0  0  0  0  0  0  0
   -3.4053    2.6844  -14.4911 C   0  0  0  0  0  0  0  0  0  0  0  0
   -3.0217    1.4533  -14.1746 C   0  0  0  0  0  0  0  0  0  0  0  0
   -2.2724    0.5303  -15.0191 C   0  0  0  0  0  0  0  0  0  0  0  0
   -1.9179   -0.7371  -14.5916 C   0  0  0  0  0  0  0  0  0  0  0  0
   -1.2107   -1.5775  -15.4216 C   0  0  0  0  0  0  0  0  0  0  0  0
   -0.8194   -1.2212  -16.6997 C   0  0  0  0  0  0  0  0  0  0  0  0
   -1.1746    0.0513  -17.1304 C   0  0  0  0  0  0  0  0  0  0  0  0
   -1.8848    0.8933  -16.2950 C   0  0  0  0  0  0  0  0  0  0  0  0
   -3.4754    1.1287  -12.7951 C   0  0  0  0  0  0  0  0  0  0  0  0
    1.1463    7.1228   -5.8944 C   0  0  0  0  0  0  0  0  0  0  0  0
  1  2  1  0
  2  3  1  0
  3  4  2  0
  3  5  1  0
  5  6  1  0
  6  7  1  0
  7  8  1  0
  8  9  1  0
  9 10  2  0
  9 11  1  0
 11 12  1  0
 12 13  1  0
 13 14  2  0
 14 15  1  0
 15 16  2  0
 16 17  1  0
 16 18  1  0
 18 19  2  0
 19 20  1  0
 20 21  2  0
 20 22  1  0
 22 23  1  0
 23 24  1  0
 24 25  2  0
 25 26  1  0
 26 27  2  0
 27 28  1  0
 28 29  2  0
 29 30  1  0
 30 31  2  0
 25 32  1  0
  7 33  1  0
 33  5  1  0
 19 13  1  0
 32 22  1  0
 31 26  1  0
M  END
>  <shape_align_shape_tanimoto>  (1) 
0.48537911626619584

>  <shape_align_color_tanimoto>  (1) 
0.0054087355604145624

>  <metric>  (1) 
shape

>  <metric_score>  (1) 
0.485

>  <template_pid>  (1) 
6P8X

>  <template_shape_score>  (1) 
0.485

>  <template_color_score>  (1) 
0.005

>  <template_combo_score>  (1) 
0.245

$$$$
6P8X_color_pose
     RDKit          3D

 33 36  0  0  0  0  0  0  0  0999 V2000
   -9.0602    2.8849  -15.0306 C   0  0  0  0  0  0  0  0  0  0  0  0
   -8.0248    1.8175  -14.6879 C   0  0  0  0  0  0  0  0  0  0  0  0
   -6.8553    1.8935  -15.5835 C   0  0  0  0  0  0  0  0  0  0  0  0
   -6.8235    2.7856  -16.5018 O   0  0  0  0  0  0  0  0  0  0  0  0
   -5.7353    1.0417  -15.5114 N   0  0  0  0  0  0  0  0  0  0  0  0
   -4.4944    0.9770  -16.2917 C   0  0  0  0  0  0  0  0  0  0  0  0
   -3.8161    0.2455  -15.1213 C   0  0  0  0  0  0  0  0  0  0  0  0
   -3.1420    1.1684  -14.2209 N   0  0  0  0  0  0  0  0  0  0  0  0
   -1.7400    1.3015  -14.1284 C   0  0  0  0  0  0  0  0  0  0  0  0
   -0.9800    0.6240  -14.8537 O   0  0  0  0  0  0  0  0  0  0  0  0
   -1.0813    2.2528  -13.1761 C   0  0  0  0  0  0  0  0  0  0  0  0
   -2.0653    2.9355  -12.3944 O   0  0  0  0  0  0  0  0  0  0  0  0
   -2.8532    2.2232  -11.4772 C   0  0  0  0  0  0  0  0  0  0  0  0
   -2.6839    0.8483  -11.2873 C   0  0  0  0  0  0  0  0  0  0  0  0
   -3.4360    0.1226  -10.3941 C   0  0  0  0  0  0  0  0  0  0  0  0
   -4.3908    0.8267   -9.6729 C   0  0  0  0  0  0  0  0  0  0  0  0
   -5.4867   -0.1024   -8.4098 Br  0  0  0  0  0  0  0  0  0  0  0  0
   -4.5833    2.1795   -9.8357 C   0  0  0  0  0  0  0  0  0  0  0  0
   -3.8061    2.9031  -10.7525 C   0  0  0  0  0  0  0  0  0  0  0  0
   -4.0865    4.3060  -10.8716 C   0  0  0  0  0  0  0  0  0  0  0  0
   -4.9799    4.7206  -11.6788 O   0  0  0  0  0  0  0  0  0  0  0  0
   -3.3995    5.2916  -10.1127 N   0  0  0  0  0  0  0  0  0  0  0  0
   -3.6548    6.7145  -10.1896 C   0  0  0  0  0  0  0  0  0  0  0  0
   -2.8545    7.2517   -9.0496 C   0  0  0  0  0  0  0  0  0  0  0  0
   -2.1410    6.3020   -8.5049 C   0  0  0  0  0  0  0  0  0  0  0  0
   -1.2359    6.4967   -7.3545 C   0  0  0  0  0  0  0  0  0  0  0  0
   -0.4940    5.4550   -6.8483 C   0  0  0  0  0  0  0  0  0  0  0  0
    0.3640    5.6213   -5.7630 C   0  0  0  0  0  0  0  0  0  0  0  0
    0.4537    6.8777   -5.1972 C   0  0  0  0  0  0  0  0  0  0  0  0
   -0.2787    7.9593   -5.6767 C   0  0  0  0  0  0  0  0  0  0  0  0
   -1.1238    7.7502   -6.7625 C   0  0  0  0  0  0  0  0  0  0  0  0
   -2.3477    4.9926   -9.1714 C   0  0  0  0  0  0  0  0  0  0  0  0
   -5.2176   -0.0960  -14.7486 C   0  0  0  0  0  0  0  0  0  0  0  0
  1  2  1  0
  2  3  1  0
  3  4  2  0
  3  5  1  0
  5  6  1  0
  6  7  1  0
  7  8  1  0
  8  9  1  0
  9 10  2  0
  9 11  1  0
 11 12  1  0
 12 13  1  0
 13 14  2  0
 14 15  1  0
 15 16  2  0
 16 17  1  0
 16 18  1  0
 18 19  2  0
 19 20  1  0
 20 21  2  0
 20 22  1  0
 22 23  1  0
 23 24  1  0
 24 25  2  0
 25 26  1  0
 26 27  2  0
 27 28  1  0
 28 29  2  0
 29 30  1  0
 30 31  2  0
 25 32  1  0
  7 33  1  0
 33  5  1  0
 19 13  1  0
 32 22  1  0
 31 26  1  0
M  END
>  <shape_align_shape_tanimoto>  (2) 
0.46451901638989762

>  <shape_align_color_tanimoto>  (2) 
0.092345862743375542

>  <metric>  (2) 
color

>  <metric_score>  (2) 
0.092

>  <template_pid>  (2) 
6P8X

>  <template_shape_score>  (2) 
0.465

>  <template_color_score>  (2) 
0.092

>  <template_combo_score>  (2) 
0.278

$$$$
6P8X_combo_pose
     RDKit          3D

 33 36  0  0  0  0  0  0  0  0999 V2000
   -9.0602    2.8849  -15.0306 C   0  0  0  0  0  0  0  0  0  0  0  0
   -8.0248    1.8175  -14.6879 C   0  0  0  0  0  0  0  0  0  0  0  0
   -6.8553    1.8935  -15.5835 C   0  0  0  0  0  0  0  0  0  0  0  0
   -6.8235    2.7856  -16.5018 O   0  0  0  0  0  0  0  0  0  0  0  0
   -5.7353    1.0417  -15.5114 N   0  0  0  0  0  0  0  0  0  0  0  0
   -4.4944    0.9770  -16.2917 C   0  0  0  0  0  0  0  0  0  0  0  0
   -3.8161    0.2455  -15.1213 C   0  0  0  0  0  0  0  0  0  0  0  0
   -3.1420    1.1684  -14.2209 N   0  0  0  0  0  0  0  0  0  0  0  0
   -1.7400    1.3015  -14.1284 C   0  0  0  0  0  0  0  0  0  0  0  0
   -0.9800    0.6240  -14.8537 O   0  0  0  0  0  0  0  0  0  0  0  0
   -1.0813    2.2528  -13.1761 C   0  0  0  0  0  0  0  0  0  0  0  0
   -2.0653    2.9355  -12.3944 O   0  0  0  0  0  0  0  0  0  0  0  0
   -2.8532    2.2232  -11.4772 C   0  0  0  0  0  0  0  0  0  0  0  0
   -2.6839    0.8483  -11.2873 C   0  0  0  0  0  0  0  0  0  0  0  0
   -3.4360    0.1226  -10.3941 C   0  0  0  0  0  0  0  0  0  0  0  0
   -4.3908    0.8267   -9.6729 C   0  0  0  0  0  0  0  0  0  0  0  0
   -5.4867   -0.1024   -8.4098 Br  0  0  0  0  0  0  0  0  0  0  0  0
   -4.5833    2.1795   -9.8357 C   0  0  0  0  0  0  0  0  0  0  0  0
   -3.8061    2.9031  -10.7525 C   0  0  0  0  0  0  0  0  0  0  0  0
   -4.0865    4.3060  -10.8716 C   0  0  0  0  0  0  0  0  0  0  0  0
   -4.9799    4.7206  -11.6788 O   0  0  0  0  0  0  0  0  0  0  0  0
   -3.3995    5.2916  -10.1127 N   0  0  0  0  0  0  0  0  0  0  0  0
   -3.6548    6.7145  -10.1896 C   0  0  0  0  0  0  0  0  0  0  0  0
   -2.8545    7.2517   -9.0496 C   0  0  0  0  0  0  0  0  0  0  0  0
   -2.1410    6.3020   -8.5049 C   0  0  0  0  0  0  0  0  0  0  0  0
   -1.2359    6.4967   -7.3545 C   0  0  0  0  0  0  0  0  0  0  0  0
   -0.4940    5.4550   -6.8483 C   0  0  0  0  0  0  0  0  0  0  0  0
    0.3640    5.6213   -5.7630 C   0  0  0  0  0  0  0  0  0  0  0  0
    0.4537    6.8777   -5.1972 C   0  0  0  0  0  0  0  0  0  0  0  0
   -0.2787    7.9593   -5.6767 C   0  0  0  0  0  0  0  0  0  0  0  0
   -1.1238    7.7502   -6.7625 C   0  0  0  0  0  0  0  0  0  0  0  0
   -2.3477    4.9926   -9.1714 C   0  0  0  0  0  0  0  0  0  0  0  0
   -5.2176   -0.0960  -14.7486 C   0  0  0  0  0  0  0  0  0  0  0  0
  1  2  1  0
  2  3  1  0
  3  4  2  0
  3  5  1  0
  5  6  1  0
  6  7  1  0
  7  8  1  0
  8  9  1  0
  9 10  2  0
  9 11  1  0
 11 12  1  0
 12 13  1  0
 13 14  2  0
 14 15  1  0
 15 16  2  0
 16 17  1  0
 16 18  1  0
 18 19  2  0
 19 20  1  0
 20 21  2  0
 20 22  1  0
 22 23  1  0
 23 24  1  0
 24 25  2  0
 25 26  1  0
 26 27  2  0
 27 28  1  0
 28 29  2  0
 29 30  1  0
 30 31  2  0
 25 32  1  0
  7 33  1  0
 33  5  1  0
 19 13  1  0
 32 22  1  0
 31 26  1  0
M  END
>  <shape_align_shape_tanimoto>  (3) 
0.46451901638989762

>  <shape_align_color_tanimoto>  (3) 
0.092345862743375542

>  <metric>  (3) 
combo

>  <metric_score>  (3) 
0.278

>  <template_pid>  (3) 
6P8X

>  <template_shape_score>  (3) 
0.465

>  <template_color_score>  (3) 
0.092

>  <template_combo_score>  (3) 
0.278

$$$$
