1D09_shape_pose
     RDKit          3D

 16 15  0  0  0  0  0  0  0  0999 V2000
   -7.3618   16.6595  -30.0437 O   0  0  0  0  0  0  0  0  0  0  0  0
   -6.2837   17.0645  -29.5904 C   0  0  0  0  0  0  0  0  0  0  0  0
   -6.1100   16.9585  -28.1952 O   0  0  0  0  0  0  0  0  0  0  0  0
   -5.1691   17.6419  -30.3478 C   0  0  0  0  0  0  0  0  0  0  0  0
   -5.3976   17.7740  -31.8110 C   0  0  2  0  0  0  0  0  0  0  0  0
   -4.2292   18.3422  -32.4755 N   0  0  0  0  0  0  0  0  0  0  0  0
   -3.5500   17.6780  -33.5316 C   0  0  0  0  0  0  0  0  0  0  0  0
   -3.9174   16.5453  -33.9651 O   0  0  0  0  0  0  0  0  0  0  0  0
   -2.3662   18.3207  -34.1602 C   0  0  0  0  0  0  0  0  0  0  0  0
   -1.7533   17.2311  -35.4426 P   0  0  0  0  0  0  0  0  0  0  0  0
   -2.9463   16.4802  -36.0047 O   0  0  0  0  0  0  0  0  0  0  0  0
   -0.5921   16.1536  -34.8367 O   0  0  0  0  0  0  0  0  0  0  0  0
   -0.9989   18.1527  -36.6421 O   0  0  0  0  0  0  0  0  0  0  0  0
   -6.4982   18.7263  -32.1468 C   0  0  0  0  0  0  0  0  0  0  0  0
   -6.2305   19.7308  -32.8550 O   0  0  0  0  0  0  0  0  0  0  0  0
   -7.8043   18.5780  -31.7289 O   0  0  0  0  0  0  0  0  0  0  0  0
  1  2  2  0
  2  3  1  0
  2  4  1  0
  5  4  1  1
  5  6  1  0
  6  7  1  0
  7  8  2  0
  7  9  1  0
  9 10  1  0
 10 11  2  0
 10 12  1  0
 10 13  1  0
  5 14  1  0
 14 15  2  0
 14 16  1  0
M  END
>  <shape_align_shape_tanimoto>  (1) 
0.48401683331243295

>  <shape_align_color_tanimoto>  (1) 
0.079363353306199008

>  <metric>  (1) 
shape

>  <metric_score>  (1) 
0.484

>  <template_pid>  (1) 
1D09

>  <template_shape_score>  (1) 
0.484

>  <template_color_score>  (1) 
0.079

>  <template_combo_score>  (1) 
0.282

$$$$
1D09_color_pose
     RDKit          3D

 16 15  0  0  0  0  0  0  0  0999 V2000
   -3.1223   18.0358  -34.8428 O   0  0  0  0  0  0  0  0  0  0  0  0
   -3.0583   17.2426  -33.8757 C   0  0  0  0  0  0  0  0  0  0  0  0
   -2.3027   16.0831  -34.0895 O   0  0  0  0  0  0  0  0  0  0  0  0
   -3.6876   17.4096  -32.5657 C   0  0  0  0  0  0  0  0  0  0  0  0
   -4.5591   18.5650  -32.3570 C   0  0  2  0  0  0  0  0  0  0  0  0
   -5.0616   18.5806  -30.9861 N   0  0  0  0  0  0  0  0  0  0  0  0
   -6.1607   17.8618  -30.5106 C   0  0  0  0  0  0  0  0  0  0  0  0
   -6.8775   17.0781  -31.2197 O   0  0  0  0  0  0  0  0  0  0  0  0
   -6.6204   17.9442  -29.0688 C   0  0  0  0  0  0  0  0  0  0  0  0
   -5.9924   16.4494  -28.2468 P   0  0  0  0  0  0  0  0  0  0  0  0
   -6.6464   16.3225  -26.8900 O   0  0  0  0  0  0  0  0  0  0  0  0
   -6.4225   15.0990  -29.2180 O   0  0  0  0  0  0  0  0  0  0  0  0
   -4.3347   16.4813  -28.0480 O   0  0  0  0  0  0  0  0  0  0  0  0
   -5.7096   18.6556  -33.3182 C   0  0  0  0  0  0  0  0  0  0  0  0
   -6.8819   18.9277  -32.8800 O   0  0  0  0  0  0  0  0  0  0  0  0
   -5.6193   18.4631  -34.6721 O   0  0  0  0  0  0  0  0  0  0  0  0
  1  2  2  0
  2  3  1  0
  2  4  1  0
  5  4  1  6
  5  6  1  0
  6  7  1  0
  7  8  2  0
  7  9  1  0
  9 10  1  0
 10 11  2  0
 10 12  1  0
 10 13  1  0
  5 14  1  0
 14 15  2  0
 14 16  1  0
M  END
>  <shape_align_shape_tanimoto>  (2) 
0.47743759017643667

>  <shape_align_color_tanimoto>  (2) 
0.10956484376889505

>  <metric>  (2) 
color

>  <metric_score>  (2) 
0.110

>  <template_pid>  (2) 
1D09

>  <template_shape_score>  (2) 
0.477

>  <template_color_score>  (2) 
0.110

>  <template_combo_score>  (2) 
0.294

$$$$
1D09_combo_pose
     RDKit          3D

 16 15  0  0  0  0  0  0  0  0999 V2000
   -3.1223   18.0358  -34.8428 O   0  0  0  0  0  0  0  0  0  0  0  0
   -3.0583   17.2426  -33.8757 C   0  0  0  0  0  0  0  0  0  0  0  0
   -2.3027   16.0831  -34.0895 O   0  0  0  0  0  0  0  0  0  0  0  0
   -3.6876   17.4096  -32.5657 C   0  0  0  0  0  0  0  0  0  0  0  0
   -4.5591   18.5650  -32.3570 C   0  0  2  0  0  0  0  0  0  0  0  0
   -5.0616   18.5806  -30.9861 N   0  0  0  0  0  0  0  0  0  0  0  0
   -6.1607   17.8618  -30.5106 C   0  0  0  0  0  0  0  0  0  0  0  0
   -6.8775   17.0781  -31.2197 O   0  0  0  0  0  0  0  0  0  0  0  0
   -6.6204   17.9442  -29.0688 C   0  0  0  0  0  0  0  0  0  0  0  0
   -5.9924   16.4494  -28.2468 P   0  0  0  0  0  0  0  0  0  0  0  0
   -6.6464   16.3225  -26.8900 O   0  0  0  0  0  0  0  0  0  0  0  0
   -6.4225   15.0990  -29.2180 O   0  0  0  0  0  0  0  0  0  0  0  0
   -4.3347   16.4813  -28.0480 O   0  0  0  0  0  0  0  0  0  0  0  0
   -5.7096   18.6556  -33.3182 C   0  0  0  0  0  0  0  0  0  0  0  0
   -6.8819   18.9277  -32.8800 O   0  0  0  0  0  0  0  0  0  0  0  0
   -5.6193   18.4631  -34.6721 O   0  0  0  0  0  0  0  0  0  0  0  0
  1  2  2  0
  2  3  1  0
  2  4  1  0
  5  4  1  6
  5  6  1  0
  6  7  1  0
  7  8  2  0
  7  9  1  0
  9 10  1  0
 10 11  2  0
 10 12  1  0
 10 13  1  0
  5 14  1  0
 14 15  2  0
 14 16  1  0
M  END
>  <shape_align_shape_tanimoto>  (3) 
0.47743759017643667

>  <shape_align_color_tanimoto>  (3) 
0.10956484376889505

>  <metric>  (3) 
combo

>  <metric_score>  (3) 
0.294

>  <template_pid>  (3) 
1D09

>  <template_shape_score>  (3) 
0.477

>  <template_color_score>  (3) 
0.110

>  <template_combo_score>  (3) 
0.294

$$$$
