3RDE_shape_pose
     RDKit          3D

 26 26  0  0  0  0  0  0  0  0999 V2000
  -21.7834  150.4895   55.2795 C   0  0  0  0  0  0  0  0  0  0  0  0
  -22.7505  151.2507   54.4529 C   0  0  0  0  0  0  0  0  0  0  0  0
  -24.1865  151.1638   54.7621 C   0  0  0  0  0  0  0  0  0  0  0  0
  -24.6492  151.6697   56.0991 C   0  0  0  0  0  0  0  0  0  0  0  0
  -24.1057  151.0181   57.3014 C   0  0  0  0  0  0  0  0  0  0  0  0
  -24.6465  151.3929   58.6411 C   0  0  0  0  0  0  0  0  0  0  0  0
  -24.6007  152.7962   59.0724 C   0  0  0  0  0  0  0  0  0  0  0  0
  -25.4430  153.7939   58.3771 C   0  0  0  0  0  0  0  0  0  0  0  0
  -26.9357  153.4750   58.5098 C   0  0  0  0  0  0  0  0  0  0  0  0
  -27.7305  154.5154   57.7664 C   0  0  0  0  0  0  0  0  0  0  0  0
  -29.1736  154.3877   57.8798 C   0  0  0  0  0  0  0  0  0  0  0  0
  -30.3742  154.3024   57.9807 C   0  0  0  0  0  0  0  0  0  0  0  0
  -31.8174  154.2257   58.1081 C   0  0  0  0  0  0  0  0  0  0  0  0
  -32.4392  153.5408   57.1738 O   0  0  0  0  0  0  0  0  0  0  0  0
  -32.3566  152.2174   57.0766 C   0  0  0  0  0  0  0  0  0  0  0  0
  -31.0487  151.5988   56.8520 C   0  0  0  0  0  0  0  0  0  0  0  0
  -30.6382  151.4482   55.5272 C   0  0  0  0  0  0  0  0  0  0  0  0
  -29.4570  150.7915   55.2648 C   0  0  0  0  0  0  0  0  0  0  0  0
  -28.6674  150.2781   56.2640 C   0  0  0  0  0  0  0  0  0  0  0  0
  -27.4263  149.5326   56.0805 C   0  0  0  0  0  0  0  0  0  0  0  0
  -27.5486  148.0461   56.0815 C   0  0  0  0  0  0  0  0  0  0  0  0
  -28.3934  147.4596   55.0529 C   0  0  0  0  0  0  0  0  0  0  0  0
  -29.0266  148.0429   54.1543 O   0  0  0  0  0  0  0  0  0  0  0  0
  -28.5210  146.0503   55.0625 O   0  0  0  0  0  0  0  0  0  0  0  0
  -29.1155  150.4545   57.5779 C   0  0  0  0  0  0  0  0  0  0  0  0
  -30.2830  151.1014   57.8844 C   0  0  0  0  0  0  0  0  0  0  0  0
  1  2  1  0
  2  3  1  0
  3  4  1  0
  4  5  1  0
  5  6  1  0
  6  7  1  0
  7  8  1  0
  8  9  1  0
  9 10  1  0
 10 11  1  0
 11 12  3  0
 12 13  1  0
 13 14  1  0
 14 15  1  0
 15 16  1  0
 16 17  2  0
 17 18  1  0
 18 19  2  0
 19 20  1  0
 20 21  1  0
 21 22  1  0
 22 23  2  0
 22 24  1  0
 19 25  1  0
 25 26  2  0
 26 16  1  0
M  CHG  1  24  -1
M  END
>  <shape_align_shape_tanimoto>  (1) 
0.72416150519188904

>  <shape_align_color_tanimoto>  (1) 
2.6596270439791073e-06

>  <metric>  (1) 
shape

>  <metric_score>  (1) 
0.724

>  <template_pid>  (1) 
3RDE

>  <template_shape_score>  (1) 
0.724

>  <template_color_score>  (1) 
0.000

>  <template_combo_score>  (1) 
0.362

$$$$
3RDE_color_pose
     RDKit          3D

 26 26  0  0  0  0  0  0  0  0999 V2000
  -25.6261  148.5733   62.0554 C   0  0  0  0  0  0  0  0  0  0  0  0
  -26.8916  147.8966   61.6238 C   0  0  0  0  0  0  0  0  0  0  0  0
  -27.1141  148.0477   60.1314 C   0  0  0  0  0  0  0  0  0  0  0  0
  -26.0032  147.4528   59.3263 C   0  0  0  0  0  0  0  0  0  0  0  0
  -26.1999  147.5927   57.8292 C   0  0  0  0  0  0  0  0  0  0  0  0
  -27.4594  146.9177   57.3344 C   0  0  0  0  0  0  0  0  0  0  0  0
  -27.6074  147.0843   55.8372 C   0  0  0  0  0  0  0  0  0  0  0  0
  -27.6869  148.5346   55.4146 C   0  0  0  0  0  0  0  0  0  0  0  0
  -28.8564  149.2451   56.0344 C   0  0  0  0  0  0  0  0  0  0  0  0
  -28.8408  150.6854   55.5446 C   0  0  0  0  0  0  0  0  0  0  0  0
  -29.9880  151.3855   56.1510 C   0  0  0  0  0  0  0  0  0  0  0  0
  -30.9482  151.9474   56.6472 C   0  0  0  0  0  0  0  0  0  0  0  0
  -32.1106  152.6139   57.2196 C   0  0  0  0  0  0  0  0  0  0  0  0
  -31.9607  153.9313   57.5039 O   0  0  0  0  0  0  0  0  0  0  0  0
  -31.1060  154.2642   58.4742 C   0  0  0  0  0  0  0  0  0  0  0  0
  -29.7035  153.8711   58.3804 C   0  0  0  0  0  0  0  0  0  0  0  0
  -29.2044  152.7381   59.0224 C   0  0  0  0  0  0  0  0  0  0  0  0
  -27.8676  152.3849   58.9236 C   0  0  0  0  0  0  0  0  0  0  0  0
  -26.9637  153.1230   58.1943 C   0  0  0  0  0  0  0  0  0  0  0  0
  -25.5367  152.8020   58.0543 C   0  0  0  0  0  0  0  0  0  0  0  0
  -25.2637  151.9067   56.8695 C   0  0  0  0  0  0  0  0  0  0  0  0
  -23.7963  151.6198   56.7840 C   0  0  0  0  0  0  0  0  0  0  0  0
  -23.0031  152.1039   57.6261 O   0  0  0  0  0  0  0  0  0  0  0  0
  -23.3236  150.8118   55.7617 O   0  0  0  0  0  0  0  0  0  0  0  0
  -27.4508  154.2476   57.5547 C   0  0  0  0  0  0  0  0  0  0  0  0
  -28.7944  154.6029   57.6539 C   0  0  0  0  0  0  0  0  0  0  0  0
  1  2  1  0
  2  3  1  0
  3  4  1  0
  4  5  1  0
  5  6  1  0
  6  7  1  0
  7  8  1  0
  8  9  1  0
  9 10  1  0
 10 11  1  0
 11 12  3  0
 12 13  1  0
 13 14  1  0
 14 15  1  0
 15 16  1  0
 16 17  2  0
 17 18  1  0
 18 19  2  0
 19 20  1  0
 20 21  1  0
 21 22  1  0
 22 23  2  0
 22 24  1  0
 19 25  1  0
 25 26  2  0
 26 16  1  0
M  CHG  1  24  -1
M  END
>  <shape_align_shape_tanimoto>  (2) 
0.59131695666418349

>  <shape_align_color_tanimoto>  (2) 
0.37986243793796748

>  <metric>  (2) 
color

>  <metric_score>  (2) 
0.380

>  <template_pid>  (2) 
3RDE

>  <template_shape_score>  (2) 
0.591

>  <template_color_score>  (2) 
0.380

>  <template_combo_score>  (2) 
0.486

$$$$
3RDE_combo_pose
     RDKit          3D

 26 26  0  0  0  0  0  0  0  0999 V2000
  -25.6261  148.5733   62.0554 C   0  0  0  0  0  0  0  0  0  0  0  0
  -26.8916  147.8966   61.6238 C   0  0  0  0  0  0  0  0  0  0  0  0
  -27.1141  148.0477   60.1314 C   0  0  0  0  0  0  0  0  0  0  0  0
  -26.0032  147.4528   59.3263 C   0  0  0  0  0  0  0  0  0  0  0  0
  -26.1999  147.5927   57.8292 C   0  0  0  0  0  0  0  0  0  0  0  0
  -27.4594  146.9177   57.3344 C   0  0  0  0  0  0  0  0  0  0  0  0
  -27.6074  147.0843   55.8372 C   0  0  0  0  0  0  0  0  0  0  0  0
  -27.6869  148.5346   55.4146 C   0  0  0  0  0  0  0  0  0  0  0  0
  -28.8564  149.2451   56.0344 C   0  0  0  0  0  0  0  0  0  0  0  0
  -28.8408  150.6854   55.5446 C   0  0  0  0  0  0  0  0  0  0  0  0
  -29.9880  151.3855   56.1510 C   0  0  0  0  0  0  0  0  0  0  0  0
  -30.9482  151.9474   56.6472 C   0  0  0  0  0  0  0  0  0  0  0  0
  -32.1106  152.6139   57.2196 C   0  0  0  0  0  0  0  0  0  0  0  0
  -31.9607  153.9313   57.5039 O   0  0  0  0  0  0  0  0  0  0  0  0
  -31.1060  154.2642   58.4742 C   0  0  0  0  0  0  0  0  0  0  0  0
  -29.7035  153.8711   58.3804 C   0  0  0  0  0  0  0  0  0  0  0  0
  -29.2044  152.7381   59.0224 C   0  0  0  0  0  0  0  0  0  0  0  0
  -27.8676  152.3849   58.9236 C   0  0  0  0  0  0  0  0  0  0  0  0
  -26.9637  153.1230   58.1943 C   0  0  0  0  0  0  0  0  0  0  0  0
  -25.5367  152.8020   58.0543 C   0  0  0  0  0  0  0  0  0  0  0  0
  -25.2637  151.9067   56.8695 C   0  0  0  0  0  0  0  0  0  0  0  0
  -23.7963  151.6198   56.7840 C   0  0  0  0  0  0  0  0  0  0  0  0
  -23.0031  152.1039   57.6261 O   0  0  0  0  0  0  0  0  0  0  0  0
  -23.3236  150.8118   55.7617 O   0  0  0  0  0  0  0  0  0  0  0  0
  -27.4508  154.2476   57.5547 C   0  0  0  0  0  0  0  0  0  0  0  0
  -28.7944  154.6029   57.6539 C   0  0  0  0  0  0  0  0  0  0  0  0
  1  2  1  0
  2  3  1  0
  3  4  1  0
  4  5  1  0
  5  6  1  0
  6  7  1  0
  7  8  1  0
  8  9  1  0
  9 10  1  0
 10 11  1  0
 11 12  3  0
 12 13  1  0
 13 14  1  0
 14 15  1  0
 15 16  1  0
 16 17  2  0
 17 18  1  0
 18 19  2  0
 19 20  1  0
 20 21  1  0
 21 22  1  0
 22 23  2  0
 22 24  1  0
 19 25  1  0
 25 26  2  0
 26 16  1  0
M  CHG  1  24  -1
M  END
>  <shape_align_shape_tanimoto>  (3) 
0.59131695666418349

>  <shape_align_color_tanimoto>  (3) 
0.37986243793796748

>  <metric>  (3) 
combo

>  <metric_score>  (3) 
0.486

>  <template_pid>  (3) 
3RDE

>  <template_shape_score>  (3) 
0.591

>  <template_color_score>  (3) 
0.380

>  <template_combo_score>  (3) 
0.486

$$$$
