5UKL_shape_pose
     RDKit          3D

 35 39  0  0  0  0  0  0  0  0999 V2000
   -0.0388  -39.9333  -18.6393 O   0  0  0  0  0  0  0  0  0  0  0  0
   -0.8109  -39.2596  -17.9024 C   0  0  0  0  0  0  0  0  0  0  0  0
   -2.1111  -38.7798  -18.4682 C   0  0  0  0  0  0  0  0  0  0  0  0
   -3.0315  -39.9539  -18.2849 C   0  0  0  0  0  0  0  0  0  0  0  0
   -4.0153  -39.7993  -17.3082 C   0  0  0  0  0  0  0  0  0  0  0  0
   -4.9163  -40.7836  -16.9790 C   0  0  0  0  0  0  0  0  0  0  0  0
   -5.9759  -40.7366  -16.0085 C   0  0  2  0  0  0  0  0  0  0  0  0
   -7.2710  -40.0566  -16.5313 C   0  0  0  0  0  0  0  0  0  0  0  0
   -8.2558  -40.2510  -15.3976 C   0  0  0  0  0  0  0  0  0  0  0  0
   -7.9634  -41.3174  -14.4977 N   0  0  0  0  0  0  0  0  0  0  0  0
   -6.7158  -41.2351  -13.7695 C   0  0  0  0  0  0  0  0  0  0  0  0
   -5.8356  -40.2875  -14.6228 C   0  0  1  0  0  0  0  0  0  0  0  0
   -4.5921  -39.8772  -13.9790 C   0  0  0  0  0  0  0  0  0  0  0  0
   -3.9172  -38.7557  -14.3900 O   0  0  0  0  0  0  0  0  0  0  0  0
   -4.2374  -37.4331  -14.3310 C   0  0  0  0  0  0  0  0  0  0  0  0
   -5.3761  -36.9027  -13.7609 C   0  0  0  0  0  0  0  0  0  0  0  0
   -5.6441  -35.5377  -13.7395 C   0  0  0  0  0  0  0  0  0  0  0  0
   -4.7601  -34.6467  -14.2983 C   0  0  0  0  0  0  0  0  0  0  0  0
   -3.6158  -35.1437  -14.8745 C   0  0  0  0  0  0  0  0  0  0  0  0
   -3.3641  -36.5085  -14.8885 C   0  0  0  0  0  0  0  0  0  0  0  0
   -2.8675  -34.0662  -15.3745 O   0  0  0  0  0  0  0  0  0  0  0  0
   -3.7541  -32.9505  -15.4744 C   0  0  0  0  0  0  0  0  0  0  0  0
   -4.6858  -33.2627  -14.4612 O   0  0  0  0  0  0  0  0  0  0  0  0
   -4.7455  -41.9756  -17.7389 C   0  0  0  0  0  0  0  0  0  0  0  0
   -3.7931  -42.1232  -18.6883 C   0  0  0  0  0  0  0  0  0  0  0  0
   -2.9042  -41.1212  -18.9965 C   0  0  0  0  0  0  0  0  0  0  0  0
   -1.9452  -41.2285  -19.9366 F   0  0  0  0  0  0  0  0  0  0  0  0
   -0.3862  -39.0110  -16.5786 N   0  0  0  0  0  0  0  0  0  0  0  0
    0.8716  -39.4902  -16.1085 C   0  0  0  0  0  0  0  0  0  0  0  0
    1.1338  -39.2024  -14.6632 C   0  0  0  0  0  0  0  0  0  0  0  0
    1.0919  -37.7735  -14.3003 C   0  0  0  0  0  0  0  0  0  0  0  0
    2.0369  -36.7865  -14.3151 C   0  0  0  0  0  0  0  0  0  0  0  0
    1.4586  -35.6360  -13.8642 N   0  0  0  0  0  0  0  0  0  0  0  0
    0.2012  -35.8652  -13.5720 N   0  0  0  0  0  0  0  0  0  0  0  0
   -0.0622  -37.1498  -13.8213 C   0  0  0  0  0  0  0  0  0  0  0  0
  1  2  2  0
  2  3  1  0
  3  4  1  0
  4  5  2  0
  5  6  1  0
  7  6  1  6
  7  8  1  0
  8  9  1  0
  9 10  1  0
 10 11  1  0
 11 12  1  0
 12 13  1  1
 13 14  1  0
 14 15  1  0
 15 16  2  0
 16 17  1  0
 17 18  2  0
 18 19  1  0
 19 20  2  0
 19 21  1  0
 21 22  1  0
 22 23  1  0
  6 24  2  0
 24 25  1  0
 25 26  2  0
 26 27  1  0
  2 28  1  0
 28 29  1  0
 29 30  1  0
 30 31  1  0
 31 32  1  0
 32 33  2  0
 33 34  1  0
 34 35  1  0
 26  4  1  0
 35 31  2  0
 12  7  1  0
 20 15  1  0
 23 18  1  0
M  CHG  1  10   1
M  END
>  <shape_align_shape_tanimoto>  (1) 
0.63632210115988697

>  <shape_align_color_tanimoto>  (1) 
0.011394289565673033

>  <metric>  (1) 
shape

>  <metric_score>  (1) 
0.636

>  <template_pid>  (1) 
5UKL

>  <template_shape_score>  (1) 
0.636

>  <template_color_score>  (1) 
0.011

>  <template_combo_score>  (1) 
0.324

$$$$
5UKL_color_pose
     RDKit          3D

 35 39  0  0  0  0  0  0  0  0999 V2000
   -9.2030  -39.0334  -14.7757 O   0  0  0  0  0  0  0  0  0  0  0  0
   -8.1851  -38.2987  -14.5199 C   0  0  0  0  0  0  0  0  0  0  0  0
   -6.9238  -38.9042  -14.0014 C   0  0  0  0  0  0  0  0  0  0  0  0
   -6.3574  -39.8600  -14.9878 C   0  0  0  0  0  0  0  0  0  0  0  0
   -5.2782  -39.4658  -15.7503 C   0  0  0  0  0  0  0  0  0  0  0  0
   -4.6827  -40.2703  -16.6993 C   0  0  0  0  0  0  0  0  0  0  0  0
   -3.5342  -39.7183  -17.4371 C   0  0  2  0  0  0  0  0  0  0  0  0
   -4.1536  -38.7649  -18.4742 C   0  0  0  0  0  0  0  0  0  0  0  0
   -5.0772  -39.5875  -19.3026 C   0  0  0  0  0  0  0  0  0  0  0  0
   -4.5167  -40.7665  -19.8641 N   0  0  0  0  0  0  0  0  0  0  0  0
   -3.2344  -41.1821  -19.4395 C   0  0  0  0  0  0  0  0  0  0  0  0
   -2.6779  -40.6518  -18.1697 C   0  0  1  0  0  0  0  0  0  0  0  0
   -1.3753  -39.9169  -18.5698 C   0  0  0  0  0  0  0  0  0  0  0  0
   -0.6183  -39.4212  -17.6398 O   0  0  0  0  0  0  0  0  0  0  0  0
    0.1219  -38.9285  -16.7214 C   0  0  0  0  0  0  0  0  0  0  0  0
    1.4571  -39.3505  -16.5511 C   0  0  0  0  0  0  0  0  0  0  0  0
    2.2483  -38.8170  -15.5631 C   0  0  0  0  0  0  0  0  0  0  0  0
    1.7632  -37.8552  -14.7104 C   0  0  0  0  0  0  0  0  0  0  0  0
    0.4642  -37.4204  -14.8485 C   0  0  0  0  0  0  0  0  0  0  0  0
   -0.3300  -37.9524  -15.8356 C   0  0  0  0  0  0  0  0  0  0  0  0
    0.2560  -36.4519  -13.8536 O   0  0  0  0  0  0  0  0  0  0  0  0
    1.3831  -36.3774  -13.0209 C   0  0  0  0  0  0  0  0  0  0  0  0
    2.3354  -37.1847  -13.6736 O   0  0  0  0  0  0  0  0  0  0  0  0
   -5.2125  -41.5247  -16.8706 C   0  0  0  0  0  0  0  0  0  0  0  0
   -6.3092  -41.9727  -16.1206 C   0  0  0  0  0  0  0  0  0  0  0  0
   -6.8767  -41.1236  -15.1755 C   0  0  0  0  0  0  0  0  0  0  0  0
   -7.9473  -41.5526  -14.4398 F   0  0  0  0  0  0  0  0  0  0  0  0
   -8.2678  -36.8919  -14.7370 N   0  0  0  0  0  0  0  0  0  0  0  0
   -9.4364  -36.2184  -15.2269 C   0  0  0  0  0  0  0  0  0  0  0  0
   -9.2247  -34.7273  -15.3786 C   0  0  0  0  0  0  0  0  0  0  0  0
   -8.1367  -34.4073  -16.3538 C   0  0  0  0  0  0  0  0  0  0  0  0
   -6.7870  -34.2448  -16.1299 C   0  0  0  0  0  0  0  0  0  0  0  0
   -6.2030  -33.9567  -17.3303 N   0  0  0  0  0  0  0  0  0  0  0  0
   -7.1323  -33.9345  -18.2837 N   0  0  0  0  0  0  0  0  0  0  0  0
   -8.3308  -34.2059  -17.7244 C   0  0  0  0  0  0  0  0  0  0  0  0
  1  2  2  0
  2  3  1  0
  3  4  1  0
  4  5  2  0
  5  6  1  0
  7  6  1  6
  7  8  1  0
  8  9  1  0
  9 10  1  0
 10 11  1  0
 11 12  1  0
 12 13  1  6
 13 14  1  0
 14 15  1  0
 15 16  2  0
 16 17  1  0
 17 18  2  0
 18 19  1  0
 19 20  2  0
 19 21  1  0
 21 22  1  0
 22 23  1  0
  6 24  2  0
 24 25  1  0
 25 26  2  0
 26 27  1  0
  2 28  1  0
 28 29  1  0
 29 30  1  0
 30 31  1  0
 31 32  1  0
 32 33  2  0
 33 34  1  0
 34 35  1  0
 26  4  1  0
 35 31  2  0
 12  7  1  0
 20 15  1  0
 23 18  1  0
M  CHG  1  10   1
M  END
>  <shape_align_shape_tanimoto>  (2) 
0.52789678847281696

>  <shape_align_color_tanimoto>  (2) 
0.10486285432006658

>  <metric>  (2) 
color

>  <metric_score>  (2) 
0.105

>  <template_pid>  (2) 
5UKL

>  <template_shape_score>  (2) 
0.528

>  <template_color_score>  (2) 
0.105

>  <template_combo_score>  (2) 
0.316

$$$$
5UKL_combo_pose
     RDKit          3D

 35 39  0  0  0  0  0  0  0  0999 V2000
   -5.6546  -39.4729  -13.0067 O   0  0  0  0  0  0  0  0  0  0  0  0
   -5.7809  -38.4033  -13.6146 C   0  0  0  0  0  0  0  0  0  0  0  0
   -6.3593  -38.3941  -14.9879 C   0  0  0  0  0  0  0  0  0  0  0  0
   -5.9284  -39.6009  -15.7540 C   0  0  0  0  0  0  0  0  0  0  0  0
   -4.9198  -39.3555  -16.6991 C   0  0  0  0  0  0  0  0  0  0  0  0
   -4.4383  -40.4085  -17.5033 C   0  0  0  0  0  0  0  0  0  0  0  0
   -3.3981  -40.1246  -18.5196 C   0  0  2  0  0  0  0  0  0  0  0  0
   -4.1832  -40.0377  -19.8299 C   0  0  0  0  0  0  0  0  0  0  0  0
   -3.3106  -40.1504  -21.0360 C   0  0  0  0  0  0  0  0  0  0  0  0
   -2.5787  -41.3696  -21.0438 N   0  0  0  0  0  0  0  0  0  0  0  0
   -2.2800  -41.9662  -19.7962 C   0  0  0  0  0  0  0  0  0  0  0  0
   -2.2608  -41.0439  -18.6028 C   0  0  1  0  0  0  0  0  0  0  0  0
   -0.9192  -40.2714  -18.7031 C   0  0  0  0  0  0  0  0  0  0  0  0
   -0.5964  -39.4877  -17.7104 O   0  0  0  0  0  0  0  0  0  0  0  0
   -0.2881  -38.7131  -16.7374 C   0  0  0  0  0  0  0  0  0  0  0  0
   -1.1087  -37.6610  -16.3182 C   0  0  0  0  0  0  0  0  0  0  0  0
   -0.7522  -36.8345  -15.2589 C   0  0  0  0  0  0  0  0  0  0  0  0
    0.4401  -37.0820  -14.6254 C   0  0  0  0  0  0  0  0  0  0  0  0
    1.2967  -38.0989  -14.9836 C   0  0  0  0  0  0  0  0  0  0  0  0
    0.9136  -38.8909  -16.0330 C   0  0  0  0  0  0  0  0  0  0  0  0
    2.4073  -38.0752  -14.1462 O   0  0  0  0  0  0  0  0  0  0  0  0
    2.4186  -36.8220  -13.4285 C   0  0  0  0  0  0  0  0  0  0  0  0
    1.0506  -36.4499  -13.5617 O   0  0  0  0  0  0  0  0  0  0  0  0
   -4.9971  -41.6586  -17.3110 C   0  0  0  0  0  0  0  0  0  0  0  0
   -5.9938  -41.9063  -16.3768 C   0  0  0  0  0  0  0  0  0  0  0  0
   -6.4717  -40.8517  -15.5786 C   0  0  0  0  0  0  0  0  0  0  0  0
   -7.4488  -41.1000  -14.6644 F   0  0  0  0  0  0  0  0  0  0  0  0
   -5.4008  -37.1256  -13.0927 N   0  0  0  0  0  0  0  0  0  0  0  0
   -4.8411  -36.8771  -11.8152 C   0  0  0  0  0  0  0  0  0  0  0  0
   -5.6499  -37.0783  -10.5953 C   0  0  0  0  0  0  0  0  0  0  0  0
   -6.2356  -38.3803  -10.3226 C   0  0  0  0  0  0  0  0  0  0  0  0
   -7.5522  -38.7289  -10.6400 C   0  0  0  0  0  0  0  0  0  0  0  0
   -7.8022  -39.9830  -10.2552 N   0  0  0  0  0  0  0  0  0  0  0  0
   -6.6917  -40.4685   -9.6959 N   0  0  0  0  0  0  0  0  0  0  0  0
   -5.7256  -39.5078   -9.7275 C   0  0  0  0  0  0  0  0  0  0  0  0
  1  2  2  0
  2  3  1  0
  3  4  1  0
  4  5  2  0
  5  6  1  0
  7  6  1  1
  7  8  1  0
  8  9  1  0
  9 10  1  0
 10 11  1  0
 11 12  1  0
 12 13  1  6
 13 14  1  0
 14 15  1  0
 15 16  2  0
 16 17  1  0
 17 18  2  0
 18 19  1  0
 19 20  2  0
 19 21  1  0
 21 22  1  0
 22 23  1  0
  6 24  2  0
 24 25  1  0
 25 26  2  0
 26 27  1  0
  2 28  1  0
 28 29  1  0
 29 30  1  0
 30 31  1  0
 31 32  1  0
 32 33  2  0
 33 34  1  0
 34 35  1  0
 26  4  1  0
 35 31  2  0
 12  7  1  0
 20 15  1  0
 23 18  1  0
M  CHG  1  10   1
M  END
>  <shape_align_shape_tanimoto>  (3) 
0.56097805001161416

>  <shape_align_color_tanimoto>  (3) 
0.098525485951035163

>  <metric>  (3) 
combo

>  <metric_score>  (3) 
0.330

>  <template_pid>  (3) 
5UKL

>  <template_shape_score>  (3) 
0.561

>  <template_color_score>  (3) 
0.099

>  <template_combo_score>  (3) 
0.330

$$$$
