4ITJ_shape_pose
     RDKit          3D

 21 22  0  0  0  0  0  0  0  0999 V2000
   20.2836   12.1208   54.5647 C   0  0  0  0  0  0  0  0  0  0  0  0
   20.8054   12.4578   55.8865 C   0  0  2  0  0  0  0  0  0  0  0  0
   20.9132   11.2505   56.6880 N   0  0  0  0  0  0  0  0  0  0  0  0
   22.1077   10.8055   57.2492 C   0  0  0  0  0  0  0  0  0  0  0  0
   23.1462   11.5231   57.0263 O   0  0  0  0  0  0  0  0  0  0  0  0
   22.3165    9.6240   58.0574 C   0  0  0  0  0  0  0  0  0  0  0  0
   23.5628    9.2753   58.5606 C   0  0  0  0  0  0  0  0  0  0  0  0
   23.4652    8.1006   59.2964 C   0  0  0  0  0  0  0  0  0  0  0  0
   22.1393    7.7489   59.2274 C   0  0  0  0  0  0  0  0  0  0  0  0
   21.6026    6.5761   59.8639 C   0  0  0  0  0  0  0  0  0  0  0  0
   21.1800    5.6166   60.3834 N   0  0  0  0  0  0  0  0  0  0  0  0
   21.4719    8.6743   58.4815 N   0  0  0  0  0  0  0  0  0  0  0  0
   20.0672    8.5870   58.2250 C   0  0  0  0  0  0  0  0  0  0  0  0
   20.1347   13.5003   56.6531 C   0  0  0  0  0  0  0  0  0  0  0  0
   19.0534   13.3019   57.4951 C   0  0  0  0  0  0  0  0  0  0  0  0
   18.5131   12.0833   57.6729 F   0  0  0  0  0  0  0  0  0  0  0  0
   18.4641   14.3498   58.1988 C   0  0  0  0  0  0  0  0  0  0  0  0
   18.9460   15.6284   58.0753 C   0  0  0  0  0  0  0  0  0  0  0  0
   20.0225   15.8547   57.2428 C   0  0  0  0  0  0  0  0  0  0  0  0
   20.5900   14.8022   56.5561 C   0  0  0  0  0  0  0  0  0  0  0  0
   21.9481   15.1518   55.5194 Cl  0  0  0  0  0  0  0  0  0  0  0  0
  2  1  1  6
  2  3  1  0
  3  4  1  0
  4  5  2  0
  4  6  1  0
  6  7  2  0
  7  8  1  0
  8  9  2  0
  9 10  1  0
 10 11  3  0
  9 12  1  0
 12 13  1  0
  2 14  1  0
 14 15  2  0
 15 16  1  0
 15 17  1  0
 17 18  2  0
 18 19  1  0
 19 20  2  0
 20 21  1  0
 12  6  1  0
 20 14  1  0
M  END
>  <shape_align_shape_tanimoto>  (1) 
0.68623141444707625

>  <shape_align_color_tanimoto>  (1) 
0.025886856316861308

>  <metric>  (1) 
shape

>  <metric_score>  (1) 
0.686

>  <template_pid>  (1) 
4ITJ

>  <template_shape_score>  (1) 
0.686

>  <template_color_score>  (1) 
0.026

>  <template_combo_score>  (1) 
0.356

$$$$
4ITJ_color_pose
     RDKit          3D

 21 22  0  0  0  0  0  0  0  0999 V2000
   20.0433    8.3061   56.3180 C   0  0  0  0  0  0  0  0  0  0  0  0
   20.0976    9.0093   57.6505 C   0  0  2  0  0  0  0  0  0  0  0  0
   19.2290   10.1516   57.7230 N   0  0  0  0  0  0  0  0  0  0  0  0
   18.2307   10.2116   58.7160 C   0  0  0  0  0  0  0  0  0  0  0  0
   18.1755    9.2038   59.5049 O   0  0  0  0  0  0  0  0  0  0  0  0
   17.2869   11.2753   58.9239 C   0  0  0  0  0  0  0  0  0  0  0  0
   16.3290   11.2277   59.9476 C   0  0  0  0  0  0  0  0  0  0  0  0
   15.5602   12.3728   59.9163 C   0  0  0  0  0  0  0  0  0  0  0  0
   16.0535   13.1150   58.8718 C   0  0  0  0  0  0  0  0  0  0  0  0
   15.5176   14.3975   58.5010 C   0  0  0  0  0  0  0  0  0  0  0  0
   15.0776   15.4370   58.1854 N   0  0  0  0  0  0  0  0  0  0  0  0
   17.0859   12.4407   58.2915 N   0  0  0  0  0  0  0  0  0  0  0  0
   17.8223   12.9354   57.1748 C   0  0  0  0  0  0  0  0  0  0  0  0
   21.5188    9.3352   57.9184 C   0  0  0  0  0  0  0  0  0  0  0  0
   22.1476   10.4747   57.4753 C   0  0  0  0  0  0  0  0  0  0  0  0
   21.4915   11.3956   56.7376 F   0  0  0  0  0  0  0  0  0  0  0  0
   23.4855   10.7513   57.7486 C   0  0  0  0  0  0  0  0  0  0  0  0
   24.2490    9.8764   58.4891 C   0  0  0  0  0  0  0  0  0  0  0  0
   23.6377    8.7283   58.9425 C   0  0  0  0  0  0  0  0  0  0  0  0
   22.3141    8.4597   58.6693 C   0  0  0  0  0  0  0  0  0  0  0  0
   21.6360    6.9686   59.2953 Cl  0  0  0  0  0  0  0  0  0  0  0  0
  2  1  1  6
  2  3  1  0
  3  4  1  0
  4  5  2  0
  4  6  1  0
  6  7  2  0
  7  8  1  0
  8  9  2  0
  9 10  1  0
 10 11  3  0
  9 12  1  0
 12 13  1  0
  2 14  1  0
 14 15  2  0
 15 16  1  0
 15 17  1  0
 17 18  2  0
 18 19  1  0
 19 20  2  0
 20 21  1  0
 12  6  1  0
 20 14  1  0
M  END
>  <shape_align_shape_tanimoto>  (2) 
0.48318234918172182

>  <shape_align_color_tanimoto>  (2) 
0.043090232857657493

>  <metric>  (2) 
color

>  <metric_score>  (2) 
0.043

>  <template_pid>  (2) 
4ITJ

>  <template_shape_score>  (2) 
0.483

>  <template_color_score>  (2) 
0.043

>  <template_combo_score>  (2) 
0.263

$$$$
4ITJ_combo_pose
     RDKit          3D

 21 22  0  0  0  0  0  0  0  0999 V2000
   20.2836   12.1208   54.5647 C   0  0  0  0  0  0  0  0  0  0  0  0
   20.8054   12.4578   55.8865 C   0  0  2  0  0  0  0  0  0  0  0  0
   20.9132   11.2505   56.6880 N   0  0  0  0  0  0  0  0  0  0  0  0
   22.1077   10.8055   57.2492 C   0  0  0  0  0  0  0  0  0  0  0  0
   23.1462   11.5231   57.0263 O   0  0  0  0  0  0  0  0  0  0  0  0
   22.3165    9.6240   58.0574 C   0  0  0  0  0  0  0  0  0  0  0  0
   23.5628    9.2753   58.5606 C   0  0  0  0  0  0  0  0  0  0  0  0
   23.4652    8.1006   59.2964 C   0  0  0  0  0  0  0  0  0  0  0  0
   22.1393    7.7489   59.2274 C   0  0  0  0  0  0  0  0  0  0  0  0
   21.6026    6.5761   59.8639 C   0  0  0  0  0  0  0  0  0  0  0  0
   21.1800    5.6166   60.3834 N   0  0  0  0  0  0  0  0  0  0  0  0
   21.4719    8.6743   58.4815 N   0  0  0  0  0  0  0  0  0  0  0  0
   20.0672    8.5870   58.2250 C   0  0  0  0  0  0  0  0  0  0  0  0
   20.1347   13.5003   56.6531 C   0  0  0  0  0  0  0  0  0  0  0  0
   19.0534   13.3019   57.4951 C   0  0  0  0  0  0  0  0  0  0  0  0
   18.5131   12.0833   57.6729 F   0  0  0  0  0  0  0  0  0  0  0  0
   18.4641   14.3498   58.1988 C   0  0  0  0  0  0  0  0  0  0  0  0
   18.9460   15.6284   58.0753 C   0  0  0  0  0  0  0  0  0  0  0  0
   20.0225   15.8547   57.2428 C   0  0  0  0  0  0  0  0  0  0  0  0
   20.5900   14.8022   56.5561 C   0  0  0  0  0  0  0  0  0  0  0  0
   21.9481   15.1518   55.5194 Cl  0  0  0  0  0  0  0  0  0  0  0  0
  2  1  1  6
  2  3  1  0
  3  4  1  0
  4  5  2  0
  4  6  1  0
  6  7  2  0
  7  8  1  0
  8  9  2  0
  9 10  1  0
 10 11  3  0
  9 12  1  0
 12 13  1  0
  2 14  1  0
 14 15  2  0
 15 16  1  0
 15 17  1  0
 17 18  2  0
 18 19  1  0
 19 20  2  0
 20 21  1  0
 12  6  1  0
 20 14  1  0
M  END
>  <shape_align_shape_tanimoto>  (3) 
0.68623141444707625

>  <shape_align_color_tanimoto>  (3) 
0.025886856316861308

>  <metric>  (3) 
combo

>  <metric_score>  (3) 
0.356

>  <template_pid>  (3) 
4ITJ

>  <template_shape_score>  (3) 
0.686

>  <template_color_score>  (3) 
0.026

>  <template_combo_score>  (3) 
0.356

$$$$
