6P8Z_shape_pose
     RDKit          3D

 40 45  0  0  0  0  0  0  0  0999 V2000
    8.8905   -5.2634  -21.0144 C   0  0  0  0  0  0  0  0  0  0  0  0
    8.9723   -3.8416  -21.5237 C   0  0  0  0  0  0  0  0  0  0  0  0
    8.3208   -2.8903  -20.5831 C   0  0  0  0  0  0  0  0  0  0  0  0
    9.0955   -2.2896  -19.7640 O   0  0  0  0  0  0  0  0  0  0  0  0
    6.9378   -2.6816  -20.6095 N   0  0  0  0  0  0  0  0  0  0  0  0
    5.7035   -3.0983  -21.2832 C   0  0  0  0  0  0  0  0  0  0  0  0
    5.0199   -2.9433  -19.9773 C   0  0  0  0  0  0  0  0  0  0  0  0
    3.6752   -2.3877  -19.9345 N   0  0  0  0  0  0  0  0  0  0  0  0
    3.0988   -2.2394  -18.6683 C   0  0  0  0  0  0  0  0  0  0  0  0
    3.8448   -2.6154  -17.6789 O   0  0  0  0  0  0  0  0  0  0  0  0
    1.7880   -1.7190  -18.3200 C   0  0  0  0  0  0  0  0  0  0  0  0
    0.7975   -1.5731  -19.3277 N   0  0  0  0  0  0  0  0  0  0  0  0
   -0.1447   -2.5168  -19.5904 C   0  0  0  0  0  0  0  0  0  0  0  0
   -0.3931   -3.8286  -18.9762 C   0  0  0  0  0  0  0  0  0  0  0  0
    0.0453   -5.0498  -19.8281 C   0  0  0  0  0  0  0  0  0  0  0  0
    0.5832   -4.7565  -18.4381 C   0  0  0  0  0  0  0  0  0  0  0  0
   -0.9803   -2.0351  -20.6285 C   0  0  0  0  0  0  0  0  0  0  0  0
   -2.0759   -2.8637  -21.1060 C   0  0  0  0  0  0  0  0  0  0  0  0
   -1.7991   -3.8347  -21.8926 O   0  0  0  0  0  0  0  0  0  0  0  0
   -3.4271   -2.6951  -20.7689 N   0  0  0  0  0  0  0  0  0  0  0  0
   -4.4958   -3.6049  -21.2038 C   0  0  0  0  0  0  0  0  0  0  0  0
   -4.9087   -4.3967  -19.9505 C   0  0  0  0  0  0  0  0  0  0  0  0
   -4.6685   -3.6248  -18.7251 C   0  0  0  0  0  0  0  0  0  0  0  0
   -4.2694   -2.3123  -18.6492 C   0  0  0  0  0  0  0  0  0  0  0  0
   -4.0742   -1.6011  -17.4984 C   0  0  0  0  0  0  0  0  0  0  0  0
   -4.2918   -2.2461  -16.2817 C   0  0  0  0  0  0  0  0  0  0  0  0
   -4.6945   -3.5778  -16.3139 C   0  0  0  0  0  0  0  0  0  0  0  0
   -4.8808   -4.2619  -17.5048 C   0  0  0  0  0  0  0  0  0  0  0  0
   -5.2865   -5.6063  -17.4390 O   0  0  0  0  0  0  0  0  0  0  0  0
   -5.4676   -6.1861  -16.1589 C   0  0  0  0  0  0  0  0  0  0  0  0
   -3.9327   -1.5828  -19.9320 C   0  0  0  0  0  0  0  0  0  0  0  0
   -0.5240   -0.7983  -20.9775 C   0  0  0  0  0  0  0  0  0  0  0  0
   -1.0046    0.0697  -21.9351 C   0  0  0  0  0  0  0  0  0  0  0  0
   -0.3373    1.2656  -22.0767 C   0  0  0  0  0  0  0  0  0  0  0  0
   -0.8729    2.4201  -23.2685 Cl  0  0  0  0  0  0  0  0  0  0  0  0
    0.7589    1.5937  -21.3066 C   0  0  0  0  0  0  0  0  0  0  0  0
    1.2346    0.6968  -20.3325 C   0  0  0  0  0  0  0  0  0  0  0  0
    2.4164    1.0386  -19.5117 C   0  0  0  0  0  0  0  0  0  0  0  0
    0.5670   -0.5269  -20.1751 C   0  0  0  0  0  0  0  0  0  0  0  0
    6.0689   -1.7981  -19.8104 C   0  0  0  0  0  0  0  0  0  0  0  0
  1  2  1  0
  2  3  1  0
  3  4  2  0
  3  5  1  0
  5  6  1  0
  6  7  1  0
  7  8  1  0
  8  9  1  0
  9 10  2  0
  9 11  1  0
 11 12  1  0
 12 13  1  0
 13 14  1  0
 14 15  1  0
 15 16  1  0
 13 17  2  0
 17 18  1  0
 18 19  2  0
 18 20  1  0
 20 21  1  0
 21 22  1  0
 22 23  1  0
 23 24  2  0
 24 25  1  0
 25 26  2  0
 26 27  1  0
 27 28  2  0
 28 29  1  0
 29 30  1  0
 24 31  1  0
 17 32  1  0
 32 33  2  0
 33 34  1  0
 34 35  1  0
 34 36  2  0
 36 37  1  0
 37 38  1  0
 37 39  2  0
  7 40  1  0
 40  5  1  0
 39 12  1  0
 16 14  1  0
 31 20  1  0
 39 32  1  0
 28 23  1  0
M  END
>  <shape_align_shape_tanimoto>  (1) 
0.55897800755158611

>  <shape_align_color_tanimoto>  (1) 
0.039884440124302513

>  <metric>  (1) 
shape

>  <metric_score>  (1) 
0.559

>  <template_pid>  (1) 
6P8Z

>  <template_shape_score>  (1) 
0.559

>  <template_color_score>  (1) 
0.040

>  <template_combo_score>  (1) 
0.299

$$$$
6P8Z_color_pose
     RDKit          3D

 40 45  0  0  0  0  0  0  0  0999 V2000
    3.2460    2.1928  -23.3970 C   0  0  0  0  0  0  0  0  0  0  0  0
    1.8285    1.7045  -23.2421 C   0  0  0  0  0  0  0  0  0  0  0  0
    1.3124    1.8723  -21.8613 C   0  0  0  0  0  0  0  0  0  0  0  0
    1.9904    2.3802  -20.9228 O   0  0  0  0  0  0  0  0  0  0  0  0
   -0.0068    1.4375  -21.5996 N   0  0  0  0  0  0  0  0  0  0  0  0
   -0.8289    1.4477  -20.3851 C   0  0  0  0  0  0  0  0  0  0  0  0
   -1.6383    0.2705  -20.9309 C   0  0  0  0  0  0  0  0  0  0  0  0
   -0.9731   -0.9619  -20.6550 N   0  0  0  0  0  0  0  0  0  0  0  0
   -1.5915   -2.1843  -20.2906 C   0  0  0  0  0  0  0  0  0  0  0  0
   -2.8339   -2.2380  -20.1906 O   0  0  0  0  0  0  0  0  0  0  0  0
   -0.7332   -3.4082  -20.0277 C   0  0  0  0  0  0  0  0  0  0  0  0
    0.6297   -3.0270  -20.1895 N   0  0  0  0  0  0  0  0  0  0  0  0
    1.3895   -2.5567  -19.1504 C   0  0  0  0  0  0  0  0  0  0  0  0
    0.9443   -2.3772  -17.7551 C   0  0  0  0  0  0  0  0  0  0  0  0
   -0.1569   -1.6248  -17.2276 C   0  0  0  0  0  0  0  0  0  0  0  0
    1.1740   -0.9108  -17.3195 C   0  0  0  0  0  0  0  0  0  0  0  0
    2.6615   -2.2579  -19.6272 C   0  0  0  0  0  0  0  0  0  0  0  0
    3.8296   -1.7550  -18.9231 C   0  0  0  0  0  0  0  0  0  0  0  0
    3.8482   -0.5986  -18.3694 O   0  0  0  0  0  0  0  0  0  0  0  0
    5.0314   -2.4846  -18.7860 N   0  0  0  0  0  0  0  0  0  0  0  0
    6.1097   -1.8408  -18.0331 C   0  0  0  0  0  0  0  0  0  0  0  0
    7.2929   -1.5686  -18.9422 C   0  0  0  0  0  0  0  0  0  0  0  0
    7.4977   -2.6751  -19.9148 C   0  0  0  0  0  0  0  0  0  0  0  0
    6.6028   -3.7070  -20.1029 C   0  0  0  0  0  0  0  0  0  0  0  0
    6.9287   -4.6696  -21.0431 C   0  0  0  0  0  0  0  0  0  0  0  0
    8.0920   -4.6345  -21.7837 C   0  0  0  0  0  0  0  0  0  0  0  0
    8.9829   -3.6001  -21.5922 C   0  0  0  0  0  0  0  0  0  0  0  0
    8.6858   -2.6102  -20.6499 C   0  0  0  0  0  0  0  0  0  0  0  0
    9.5911   -1.5560  -20.4496 O   0  0  0  0  0  0  0  0  0  0  0  0
   10.7968   -1.4294  -21.1486 C   0  0  0  0  0  0  0  0  0  0  0  0
    5.3123   -3.7880  -19.3237 C   0  0  0  0  0  0  0  0  0  0  0  0
    2.6211   -2.5682  -20.9790 C   0  0  0  0  0  0  0  0  0  0  0  0
    3.6205   -2.4648  -21.9495 C   0  0  0  0  0  0  0  0  0  0  0  0
    3.3859   -2.8293  -23.2553 C   0  0  0  0  0  0  0  0  0  0  0  0
    4.6408   -2.7052  -24.4830 Cl  0  0  0  0  0  0  0  0  0  0  0  0
    2.1379   -3.2970  -23.5705 C   0  0  0  0  0  0  0  0  0  0  0  0
    1.1122   -3.4156  -22.6304 C   0  0  0  0  0  0  0  0  0  0  0  0
   -0.2403   -3.9417  -23.0238 C   0  0  0  0  0  0  0  0  0  0  0  0
    1.3588   -3.0447  -21.3147 C   0  0  0  0  0  0  0  0  0  0  0  0
   -1.1371    0.8226  -22.2644 C   0  0  0  0  0  0  0  0  0  0  0  0
  1  2  1  0
  2  3  1  0
  3  4  2  0
  3  5  1  0
  5  6  1  0
  6  7  1  0
  7  8  1  0
  8  9  1  0
  9 10  2  0
  9 11  1  0
 11 12  1  0
 12 13  1  0
 13 14  1  0
 14 15  1  0
 15 16  1  0
 13 17  2  0
 17 18  1  0
 18 19  2  0
 18 20  1  0
 20 21  1  0
 21 22  1  0
 22 23  1  0
 23 24  2  0
 24 25  1  0
 25 26  2  0
 26 27  1  0
 27 28  2  0
 28 29  1  0
 29 30  1  0
 24 31  1  0
 17 32  1  0
 32 33  2  0
 33 34  1  0
 34 35  1  0
 34 36  2  0
 36 37  1  0
 37 38  1  0
 37 39  2  0
  7 40  1  0
 40  5  1  0
 39 12  1  0
 16 14  1  0
 31 20  1  0
 39 32  1  0
 28 23  1  0
M  END
>  <shape_align_shape_tanimoto>  (2) 
0.47231018373447253

>  <shape_align_color_tanimoto>  (2) 
0.23209132112071387

>  <metric>  (2) 
color

>  <metric_score>  (2) 
0.232

>  <template_pid>  (2) 
6P8Z

>  <template_shape_score>  (2) 
0.472

>  <template_color_score>  (2) 
0.232

>  <template_combo_score>  (2) 
0.352

$$$$
6P8Z_combo_pose
     RDKit          3D

 40 45  0  0  0  0  0  0  0  0999 V2000
    3.2460    2.1928  -23.3970 C   0  0  0  0  0  0  0  0  0  0  0  0
    1.8285    1.7045  -23.2421 C   0  0  0  0  0  0  0  0  0  0  0  0
    1.3124    1.8723  -21.8613 C   0  0  0  0  0  0  0  0  0  0  0  0
    1.9904    2.3802  -20.9228 O   0  0  0  0  0  0  0  0  0  0  0  0
   -0.0068    1.4375  -21.5996 N   0  0  0  0  0  0  0  0  0  0  0  0
   -0.8289    1.4477  -20.3851 C   0  0  0  0  0  0  0  0  0  0  0  0
   -1.6383    0.2705  -20.9309 C   0  0  0  0  0  0  0  0  0  0  0  0
   -0.9731   -0.9619  -20.6550 N   0  0  0  0  0  0  0  0  0  0  0  0
   -1.5915   -2.1843  -20.2906 C   0  0  0  0  0  0  0  0  0  0  0  0
   -2.8339   -2.2380  -20.1906 O   0  0  0  0  0  0  0  0  0  0  0  0
   -0.7332   -3.4082  -20.0277 C   0  0  0  0  0  0  0  0  0  0  0  0
    0.6297   -3.0270  -20.1895 N   0  0  0  0  0  0  0  0  0  0  0  0
    1.3895   -2.5567  -19.1504 C   0  0  0  0  0  0  0  0  0  0  0  0
    0.9443   -2.3772  -17.7551 C   0  0  0  0  0  0  0  0  0  0  0  0
   -0.1569   -1.6248  -17.2276 C   0  0  0  0  0  0  0  0  0  0  0  0
    1.1740   -0.9108  -17.3195 C   0  0  0  0  0  0  0  0  0  0  0  0
    2.6615   -2.2579  -19.6272 C   0  0  0  0  0  0  0  0  0  0  0  0
    3.8296   -1.7550  -18.9231 C   0  0  0  0  0  0  0  0  0  0  0  0
    3.8482   -0.5986  -18.3694 O   0  0  0  0  0  0  0  0  0  0  0  0
    5.0314   -2.4846  -18.7860 N   0  0  0  0  0  0  0  0  0  0  0  0
    6.1097   -1.8408  -18.0331 C   0  0  0  0  0  0  0  0  0  0  0  0
    7.2929   -1.5686  -18.9422 C   0  0  0  0  0  0  0  0  0  0  0  0
    7.4977   -2.6751  -19.9148 C   0  0  0  0  0  0  0  0  0  0  0  0
    6.6028   -3.7070  -20.1029 C   0  0  0  0  0  0  0  0  0  0  0  0
    6.9287   -4.6696  -21.0431 C   0  0  0  0  0  0  0  0  0  0  0  0
    8.0920   -4.6345  -21.7837 C   0  0  0  0  0  0  0  0  0  0  0  0
    8.9829   -3.6001  -21.5922 C   0  0  0  0  0  0  0  0  0  0  0  0
    8.6858   -2.6102  -20.6499 C   0  0  0  0  0  0  0  0  0  0  0  0
    9.5911   -1.5560  -20.4496 O   0  0  0  0  0  0  0  0  0  0  0  0
   10.7968   -1.4294  -21.1486 C   0  0  0  0  0  0  0  0  0  0  0  0
    5.3123   -3.7880  -19.3237 C   0  0  0  0  0  0  0  0  0  0  0  0
    2.6211   -2.5682  -20.9790 C   0  0  0  0  0  0  0  0  0  0  0  0
    3.6205   -2.4648  -21.9495 C   0  0  0  0  0  0  0  0  0  0  0  0
    3.3859   -2.8293  -23.2553 C   0  0  0  0  0  0  0  0  0  0  0  0
    4.6408   -2.7052  -24.4830 Cl  0  0  0  0  0  0  0  0  0  0  0  0
    2.1379   -3.2970  -23.5705 C   0  0  0  0  0  0  0  0  0  0  0  0
    1.1122   -3.4156  -22.6304 C   0  0  0  0  0  0  0  0  0  0  0  0
   -0.2403   -3.9417  -23.0238 C   0  0  0  0  0  0  0  0  0  0  0  0
    1.3588   -3.0447  -21.3147 C   0  0  0  0  0  0  0  0  0  0  0  0
   -1.1371    0.8226  -22.2644 C   0  0  0  0  0  0  0  0  0  0  0  0
  1  2  1  0
  2  3  1  0
  3  4  2  0
  3  5  1  0
  5  6  1  0
  6  7  1  0
  7  8  1  0
  8  9  1  0
  9 10  2  0
  9 11  1  0
 11 12  1  0
 12 13  1  0
 13 14  1  0
 14 15  1  0
 15 16  1  0
 13 17  2  0
 17 18  1  0
 18 19  2  0
 18 20  1  0
 20 21  1  0
 21 22  1  0
 22 23  1  0
 23 24  2  0
 24 25  1  0
 25 26  2  0
 26 27  1  0
 27 28  2  0
 28 29  1  0
 29 30  1  0
 24 31  1  0
 17 32  1  0
 32 33  2  0
 33 34  1  0
 34 35  1  0
 34 36  2  0
 36 37  1  0
 37 38  1  0
 37 39  2  0
  7 40  1  0
 40  5  1  0
 39 12  1  0
 16 14  1  0
 31 20  1  0
 39 32  1  0
 28 23  1  0
M  END
>  <shape_align_shape_tanimoto>  (3) 
0.47231018373447253

>  <shape_align_color_tanimoto>  (3) 
0.23209132112071387

>  <metric>  (3) 
combo

>  <metric_score>  (3) 
0.352

>  <template_pid>  (3) 
6P8Z

>  <template_shape_score>  (3) 
0.472

>  <template_color_score>  (3) 
0.232

>  <template_combo_score>  (3) 
0.352

$$$$
