5TQ4_shape_pose
     RDKit          3D

 21 23  0  0  0  0  0  0  0  0999 V2000
  -11.8016    9.0839   50.4771 C   0  0  0  0  0  0  0  0  0  0  0  0
  -11.4814   10.4949   50.5100 C   0  0  0  0  0  0  0  0  0  0  0  0
  -10.4142   11.0496   51.3281 C   0  0  0  0  0  0  0  0  0  0  0  0
  -10.4483   12.4486   51.5220 C   0  0  0  0  0  0  0  0  0  0  0  0
   -9.5547   13.1214   52.2812 C   0  0  0  0  0  0  0  0  0  0  0  0
   -9.5933   14.5033   52.4696 O   0  0  0  0  0  0  0  0  0  0  0  0
   -8.5502   12.4376   52.9092 C   0  0  0  0  0  0  0  0  0  0  0  0
   -8.4948   11.0789   52.7357 C   0  0  0  0  0  0  0  0  0  0  0  0
   -9.4226   10.3825   51.9468 C   0  0  0  0  0  0  0  0  0  0  0  0
   -9.1721    8.9484   51.8303 C   0  0  0  0  0  0  0  0  0  0  0  0
   -9.1698    8.2113   53.0253 C   0  0  0  0  0  0  0  0  0  0  0  0
   -8.8923    6.8402   53.0064 C   0  0  0  0  0  0  0  0  0  0  0  0
   -8.6222    6.2391   51.7862 C   0  0  0  0  0  0  0  0  0  0  0  0
   -8.3153    4.9194   51.4704 C   0  0  0  0  0  0  0  0  0  0  0  0
   -8.1983    3.7782   52.3934 C   0  0  0  0  0  0  0  0  0  0  0  0
   -8.4022    3.9504   53.7979 N   0  0  0  0  0  0  0  0  0  0  0  0
   -7.9180    2.6171   51.9914 O   0  0  0  0  0  0  0  0  0  0  0  0
   -8.1360    4.8551   50.1257 N   0  0  0  0  0  0  0  0  0  0  0  0
   -8.3230    6.0794   49.6233 N   0  0  0  0  0  0  0  0  0  0  0  0
   -8.6212    6.9565   50.5983 C   0  0  0  0  0  0  0  0  0  0  0  0
   -8.8992    8.3181   50.6322 C   0  0  0  0  0  0  0  0  0  0  0  0
  1  2  1  0
  2  3  1  0
  3  4  2  0
  4  5  1  0
  5  6  1  0
  5  7  2  0
  7  8  1  0
  8  9  2  0
  9 10  1  0
 10 11  1  0
 11 12  2  0
 12 13  1  0
 13 14  2  0
 14 15  1  0
 15 16  1  0
 15 17  2  0
 14 18  1  0
 18 19  1  0
 19 20  2  0
 20 21  1  0
  9  3  1  0
 21 10  2  0
 20 13  1  0
M  END
>  <shape_align_shape_tanimoto>  (1) 
0.7660490967311343

>  <shape_align_color_tanimoto>  (1) 
0.063783564173230972

>  <metric>  (1) 
shape

>  <metric_score>  (1) 
0.766

>  <template_pid>  (1) 
5TQ4

>  <template_shape_score>  (1) 
0.766

>  <template_color_score>  (1) 
0.064

>  <template_combo_score>  (1) 
0.415

$$$$
5TQ4_color_pose
     RDKit          3D

 21 23  0  0  0  0  0  0  0  0999 V2000
   -7.6936    5.8768   48.8631 C   0  0  0  0  0  0  0  0  0  0  0  0
   -8.6005    6.5525   49.8797 C   0  0  0  0  0  0  0  0  0  0  0  0
   -8.5825    5.8224   51.1592 C   0  0  0  0  0  0  0  0  0  0  0  0
   -8.3085    4.4639   51.2404 C   0  0  0  0  0  0  0  0  0  0  0  0
   -8.3054    3.8954   52.4965 C   0  0  0  0  0  0  0  0  0  0  0  0
   -8.0230    2.5068   52.5264 O   0  0  0  0  0  0  0  0  0  0  0  0
   -8.5552    4.5982   53.6499 C   0  0  0  0  0  0  0  0  0  0  0  0
   -8.8317    5.9850   53.5788 C   0  0  0  0  0  0  0  0  0  0  0  0
   -8.8324    6.5357   52.3215 C   0  0  0  0  0  0  0  0  0  0  0  0
   -9.1118    7.9726   52.2075 C   0  0  0  0  0  0  0  0  0  0  0  0
   -8.2543    8.8058   52.9185 C   0  0  0  0  0  0  0  0  0  0  0  0
   -8.4409   10.1846   52.8597 C   0  0  0  0  0  0  0  0  0  0  0  0
   -9.4473   10.7619   52.1182 C   0  0  0  0  0  0  0  0  0  0  0  0
   -9.8766   12.0520   51.8485 C   0  0  0  0  0  0  0  0  0  0  0  0
   -9.2716   13.2753   52.3614 C   0  0  0  0  0  0  0  0  0  0  0  0
   -8.1115   13.2814   53.1929 N   0  0  0  0  0  0  0  0  0  0  0  0
   -9.7508   14.4163   52.0940 O   0  0  0  0  0  0  0  0  0  0  0  0
  -10.9305   11.9808   51.0298 N   0  0  0  0  0  0  0  0  0  0  0  0
  -11.1551   10.6958   50.7928 N   0  0  0  0  0  0  0  0  0  0  0  0
  -10.2808    9.9068   51.4275 C   0  0  0  0  0  0  0  0  0  0  0  0
  -10.1045    8.5278   51.4813 C   0  0  0  0  0  0  0  0  0  0  0  0
  1  2  1  0
  2  3  1  0
  3  4  2  0
  4  5  1  0
  5  6  1  0
  5  7  2  0
  7  8  1  0
  8  9  2  0
  9 10  1  0
 10 11  1  0
 11 12  2  0
 12 13  1  0
 13 14  2  0
 14 15  1  0
 15 16  1  0
 15 17  2  0
 14 18  1  0
 18 19  1  0
 19 20  2  0
 20 21  1  0
  9  3  1  0
 21 10  2  0
 20 13  1  0
M  END
>  <shape_align_shape_tanimoto>  (2) 
0.74516848848986861

>  <shape_align_color_tanimoto>  (2) 
0.17903070858144732

>  <metric>  (2) 
color

>  <metric_score>  (2) 
0.179

>  <template_pid>  (2) 
5TQ4

>  <template_shape_score>  (2) 
0.745

>  <template_color_score>  (2) 
0.179

>  <template_combo_score>  (2) 
0.462

$$$$
5TQ4_combo_pose
     RDKit          3D

 21 23  0  0  0  0  0  0  0  0999 V2000
   -7.6936    5.8768   48.8631 C   0  0  0  0  0  0  0  0  0  0  0  0
   -8.6005    6.5525   49.8797 C   0  0  0  0  0  0  0  0  0  0  0  0
   -8.5825    5.8224   51.1592 C   0  0  0  0  0  0  0  0  0  0  0  0
   -8.3085    4.4639   51.2404 C   0  0  0  0  0  0  0  0  0  0  0  0
   -8.3054    3.8954   52.4965 C   0  0  0  0  0  0  0  0  0  0  0  0
   -8.0230    2.5068   52.5264 O   0  0  0  0  0  0  0  0  0  0  0  0
   -8.5552    4.5982   53.6499 C   0  0  0  0  0  0  0  0  0  0  0  0
   -8.8317    5.9850   53.5788 C   0  0  0  0  0  0  0  0  0  0  0  0
   -8.8324    6.5357   52.3215 C   0  0  0  0  0  0  0  0  0  0  0  0
   -9.1118    7.9726   52.2075 C   0  0  0  0  0  0  0  0  0  0  0  0
   -8.2543    8.8058   52.9185 C   0  0  0  0  0  0  0  0  0  0  0  0
   -8.4409   10.1846   52.8597 C   0  0  0  0  0  0  0  0  0  0  0  0
   -9.4473   10.7619   52.1182 C   0  0  0  0  0  0  0  0  0  0  0  0
   -9.8766   12.0520   51.8485 C   0  0  0  0  0  0  0  0  0  0  0  0
   -9.2716   13.2753   52.3614 C   0  0  0  0  0  0  0  0  0  0  0  0
   -8.1115   13.2814   53.1929 N   0  0  0  0  0  0  0  0  0  0  0  0
   -9.7508   14.4163   52.0940 O   0  0  0  0  0  0  0  0  0  0  0  0
  -10.9305   11.9808   51.0298 N   0  0  0  0  0  0  0  0  0  0  0  0
  -11.1551   10.6958   50.7928 N   0  0  0  0  0  0  0  0  0  0  0  0
  -10.2808    9.9068   51.4275 C   0  0  0  0  0  0  0  0  0  0  0  0
  -10.1045    8.5278   51.4813 C   0  0  0  0  0  0  0  0  0  0  0  0
  1  2  1  0
  2  3  1  0
  3  4  2  0
  4  5  1  0
  5  6  1  0
  5  7  2  0
  7  8  1  0
  8  9  2  0
  9 10  1  0
 10 11  1  0
 11 12  2  0
 12 13  1  0
 13 14  2  0
 14 15  1  0
 15 16  1  0
 15 17  2  0
 14 18  1  0
 18 19  1  0
 19 20  2  0
 20 21  1  0
  9  3  1  0
 21 10  2  0
 20 13  1  0
M  END
>  <shape_align_shape_tanimoto>  (3) 
0.74516848848986861

>  <shape_align_color_tanimoto>  (3) 
0.17903070858144732

>  <metric>  (3) 
combo

>  <metric_score>  (3) 
0.462

>  <template_pid>  (3) 
5TQ4

>  <template_shape_score>  (3) 
0.745

>  <template_color_score>  (3) 
0.179

>  <template_combo_score>  (3) 
0.462

$$$$
