3L3Z_shape_pose
     RDKit          3D

104104  0  0  0  0  0  0  0  0999 V2000
   20.7150  -49.7962  -28.3980 C   0  0  0  0  0  0  0  0  0  0  0  0
   21.9804  -49.1270  -28.9513 C   0  0  0  0  0  0  0  0  0  0  0  0
   21.4704  -48.0835  -29.9363 C   0  0  0  0  0  0  0  0  0  0  0  0
   22.7813  -50.1897  -29.6308 C   0  0  0  0  0  0  0  0  0  0  0  0
   24.0938  -49.6620  -30.2266 C   0  0  2  0  0  0  0  0  0  0  0  0
   24.9061  -49.1236  -29.1915 N   0  0  0  0  0  0  0  0  0  0  0  0
   26.1759  -49.6598  -28.8766 C   0  0  0  0  0  0  0  0  0  0  0  0
   26.5681  -50.6316  -29.6167 O   0  0  0  0  0  0  0  0  0  0  0  0
   27.0939  -49.2568  -27.8155 C   0  0  2  0  0  0  0  0  0  0  0  0
   27.4307  -50.5318  -26.9546 C   0  0  0  0  0  0  0  0  0  0  0  0
   26.6018  -48.2887  -26.8663 N   0  0  0  0  0  0  0  0  0  0  0  0
   27.5944  -47.4713  -26.2152 C   0  0  0  0  0  0  0  0  0  0  0  0
   28.8030  -47.6050  -26.4925 O   0  0  0  0  0  0  0  0  0  0  0  0
   27.2081  -46.4607  -25.1902 C   0  0  1  0  0  0  0  0  0  0  0  0
   28.0403  -46.7496  -24.0084 N   0  0  0  0  0  0  0  0  0  0  0  0
   27.7070  -45.0845  -25.6755 C   0  0  0  0  0  0  0  0  0  0  0  0
   27.3198  -44.0785  -24.6387 C   0  0  0  0  0  0  0  0  0  0  0  0
   27.6261  -42.6943  -24.7542 N   0  0  0  0  0  0  0  0  0  0  0  0
   26.6962  -44.4849  -23.6246 O   0  0  0  0  0  0  0  0  0  0  0  0
   23.8860  -48.9819  -31.4761 C   0  0  0  0  0  0  0  0  0  0  0  0
   23.0187  -49.5807  -32.2662 O   0  0  0  0  0  0  0  0  0  0  0  0
   24.4197  -47.8091  -32.0249 N   0  0  0  0  0  0  0  0  0  0  0  0
   24.0006  -47.3615  -33.3833 C   0  0  1  0  0  0  0  0  0  0  0  0
   23.3146  -46.0534  -33.3033 C   0  0  0  0  0  0  0  0  0  0  0  0
   22.7901  -45.4077  -34.5259 C   0  0  0  0  0  0  0  0  0  0  0  0
   21.7871  -46.2392  -35.3029 C   0  0  0  0  0  0  0  0  0  0  0  0
   23.6995  -44.6839  -35.4300 C   0  0  0  0  0  0  0  0  0  0  0  0
   25.2279  -47.3431  -34.2102 C   0  0  0  0  0  0  0  0  0  0  0  0
   25.2140  -47.0425  -35.4362 O   0  0  0  0  0  0  0  0  0  0  0  0
   26.4557  -47.6659  -33.6203 N   0  0  0  0  0  0  0  0  0  0  0  0
   27.7491  -47.6282  -34.4277 C   0  0  1  0  0  0  0  0  0  0  0  0
   28.4922  -46.4923  -33.9332 C   0  0  0  0  0  0  0  0  0  0  0  0
   29.7701  -45.9620  -34.3575 C   0  0  0  0  0  0  0  0  0  0  0  0
   31.0809  -46.5608  -34.2872 C   0  0  0  0  0  0  0  0  0  0  0  0
   31.5678  -47.6821  -34.9451 N   0  0  0  0  0  0  0  0  0  0  0  0
   31.7827  -47.8238  -36.3444 C   0  0  0  0  0  0  0  0  0  0  0  0
   32.3196  -49.0652  -36.8327 N   0  0  0  0  0  0  0  0  0  0  0  0
   31.5345  -46.8733  -37.1721 N   0  0  0  0  0  0  0  0  0  0  0  0
   28.2688  -48.9814  -34.4634 C   0  0  0  0  0  0  0  0  0  0  0  0
   29.3042  -49.3957  -35.0313 O   0  0  0  0  0  0  0  0  0  0  0  0
   27.5511  -50.0661  -33.7723 N   0  0  0  0  0  0  0  0  0  0  0  0
   28.1048  -51.4203  -33.8100 C   0  0  1  0  0  0  0  0  0  0  0  0
   28.4119  -51.9104  -32.4286 C   0  0  0  0  0  0  0  0  0  0  0  0
   28.9805  -53.2583  -32.4478 C   0  0  0  0  0  0  0  0  0  0  0  0
   30.3763  -53.3143  -32.6652 C   0  0  0  0  0  0  0  0  0  0  0  0
   31.0502  -54.5136  -32.6869 C   0  0  0  0  0  0  0  0  0  0  0  0
   30.3435  -55.7203  -32.4873 C   0  0  0  0  0  0  0  0  0  0  0  0
   31.0652  -56.9042  -32.5183 O   0  0  0  0  0  0  0  0  0  0  0  0
   28.9776  -55.6676  -32.2738 C   0  0  0  0  0  0  0  0  0  0  0  0
   28.3376  -54.4420  -32.2609 C   0  0  0  0  0  0  0  0  0  0  0  0
   27.1388  -52.3065  -34.4824 C   0  0  0  0  0  0  0  0  0  0  0  0
   27.3811  -53.5454  -34.6402 O   0  0  0  0  0  0  0  0  0  0  0  0
   25.9136  -51.8447  -34.9882 N   0  0  0  0  0  0  0  0  0  0  0  0
   24.8866  -52.5581  -35.6600 C   0  0  1  0  0  0  0  0  0  0  0  0
   23.5268  -52.4587  -35.1083 C   0  0  0  0  0  0  0  0  0  0  0  0
   23.3848  -53.0374  -33.7350 C   0  0  0  0  0  0  0  0  0  0  0  0
   21.9509  -52.8819  -33.2544 C   0  0  0  0  0  0  0  0  0  0  0  0
   24.3205  -52.5296  -32.7068 C   0  0  0  0  0  0  0  0  0  0  0  0
   24.9589  -52.3428  -37.1432 C   0  0  0  0  0  0  0  0  0  0  0  0
   23.9320  -52.4226  -37.8694 O   0  0  0  0  0  0  0  0  0  0  0  0
   26.2229  -52.0605  -37.6665 N   0  0  0  0  0  0  0  0  0  0  0  0
   26.5635  -51.8133  -39.0395 C   0  0  1  0  0  0  0  0  0  0  0  0
   27.8128  -51.1127  -39.3083 C   0  0  0  0  0  0  0  0  0  0  0  0
   27.8700  -49.7263  -38.6830 C   0  0  0  0  0  0  0  0  0  0  0  0
   29.1920  -49.0513  -39.0131 C   0  0  0  0  0  0  0  0  0  0  0  0
   26.7767  -48.8181  -39.1583 C   0  0  0  0  0  0  0  0  0  0  0  0
   26.2997  -53.0700  -39.8135 C   0  0  0  0  0  0  0  0  0  0  0  0
   25.5180  -53.9474  -39.3141 O   0  0  0  0  0  0  0  0  0  0  0  0
   26.8834  -53.2840  -41.0510 N   0  0  0  0  0  0  0  0  0  0  0  0
   26.7222  -54.3814  -41.9781 C   0  0  1  0  0  0  0  0  0  0  0  0
   26.9680  -53.9246  -43.3763 C   0  0  0  0  0  0  0  0  0  0  0  0
   26.7639  -54.9298  -44.4234 C   0  0  0  0  0  0  0  0  0  0  0  0
   26.2784  -56.0657  -44.3031 O   0  0  0  0  0  0  0  0  0  0  0  0
   27.1635  -54.5627  -45.7177 O   0  0  0  0  0  0  0  0  0  0  0  0
   27.5144  -55.5873  -41.6622 C   0  0  0  0  0  0  0  0  0  0  0  0
   27.8799  -56.4489  -42.5025 O   0  0  0  0  0  0  0  0  0  0  0  0
   27.9543  -55.9199  -40.3145 N   0  0  0  0  0  0  0  0  0  0  0  0
   28.7071  -57.1936  -40.2823 C   0  0  1  0  0  0  0  0  0  0  0  0
   29.2898  -57.4243  -38.9371 C   0  0  0  0  0  0  0  0  0  0  0  0
   30.0544  -58.7300  -38.7809 C   0  0  0  0  0  0  0  0  0  0  0  0
   30.5158  -58.8303  -37.3332 C   0  0  0  0  0  0  0  0  0  0  0  0
   31.2011  -60.0421  -37.0165 N   0  0  0  0  0  0  0  0  0  0  0  0
   31.6181  -60.1939  -35.6382 C   0  0  0  0  0  0  0  0  0  0  0  0
   32.2898  -61.3950  -35.2445 N   0  0  0  0  0  0  0  0  0  0  0  0
   31.3885  -59.2943  -34.7469 N   0  0  0  0  0  0  0  0  0  0  0  0
   27.6132  -58.2548  -40.4076 C   0  0  0  0  0  0  0  0  0  0  0  0
   28.0375  -59.3692  -40.8648 O   0  0  0  0  0  0  0  0  0  0  0  0
   26.2705  -58.0277  -40.0504 N   0  0  0  0  0  0  0  0  0  0  0  0
   25.3291  -59.1141  -40.2426 C   0  0  1  0  0  0  0  0  0  0  0  0
   25.7434  -60.1521  -39.1663 C   0  0  0  0  0  0  0  0  0  0  0  0
   24.9336  -61.3782  -39.1983 C   0  0  0  0  0  0  0  0  0  0  0  0
   24.0241  -61.6665  -40.0008 O   0  0  0  0  0  0  0  0  0  0  0  0
   25.2101  -62.3386  -38.2147 O   0  0  0  0  0  0  0  0  0  0  0  0
   23.9535  -58.6882  -40.0398 C   0  0  0  0  0  0  0  0  0  0  0  0
   22.9799  -59.4459  -40.4172 O   0  0  0  0  0  0  0  0  0  0  0  0
   23.5308  -57.4722  -39.4358 N   0  0  0  0  0  0  0  0  0  0  0  0
   22.1232  -57.1290  -39.2668 C   0  0  1  0  0  0  0  0  0  0  0  0
   21.7833  -57.4756  -37.8067 C   0  0  0  0  0  0  0  0  0  0  0  0
   21.9961  -58.9141  -37.5319 C   0  0  0  0  0  0  0  0  0  0  0  0
   23.1262  -59.3533  -37.1567 O   0  0  0  0  0  0  0  0  0  0  0  0
   20.9887  -59.8521  -37.6659 O   0  0  0  0  0  0  0  0  0  0  0  0
   21.7902  -55.7440  -39.5781 C   0  0  0  0  0  0  0  0  0  0  0  0
   21.6513  -54.9449  -38.5958 O   0  0  0  0  0  0  0  0  0  0  0  0
   21.6338  -55.3563  -40.8967 O   0  0  0  0  0  0  0  0  0  0  0  0
  1  2  1  0
  2  3  1  0
  2  4  1  0
  5  4  1  1
  5  6  1  0
  6  7  1  0
  7  8  2  0
  7  9  1  0
  9 10  1  1
  9 11  1  0
 11 12  1  0
 12 13  2  0
 12 14  1  0
 14 15  1  1
 14 16  1  0
 16 17  1  0
 17 18  1  0
 17 19  2  0
  5 20  1  0
 20 21  2  0
 20 22  1  0
 22 23  1  0
 23 24  1  1
 24 25  1  0
 25 26  1  0
 25 27  1  0
 23 28  1  0
 28 29  2  0
 28 30  1  0
 30 31  1  0
 31 32  1  1
 32 33  1  0
 33 34  1  0
 34 35  1  0
 35 36  1  0
 36 37  1  0
 36 38  2  0
 31 39  1  0
 39 40  2  0
 39 41  1  0
 41 42  1  0
 42 43  1  1
 43 44  1  0
 44 45  2  0
 45 46  1  0
 46 47  2  0
 47 48  1  0
 47 49  1  0
 49 50  2  0
 42 51  1  0
 51 52  2  0
 51 53  1  0
 53 54  1  0
 54 55  1  1
 55 56  1  0
 56 57  1  0
 56 58  1  0
 54 59  1  0
 59 60  2  0
 59 61  1  0
 61 62  1  0
 62 63  1  1
 63 64  1  0
 64 65  1  0
 64 66  1  0
 62 67  1  0
 67 68  2  0
 67 69  1  0
 69 70  1  0
 70 71  1  6
 71 72  1  0
 72 73  2  0
 72 74  1  0
 70 75  1  0
 75 76  2  0
 75 77  1  0
 77 78  1  0
 78 79  1  1
 79 80  1  0
 80 81  1  0
 81 82  1  0
 82 83  1  0
 83 84  1  0
 83 85  2  0
 78 86  1  0
 86 87  2  0
 86 88  1  0
 88 89  1  0
 89 90  1  1
 90 91  1  0
 91 92  2  0
 91 93  1  0
 89 94  1  0
 94 95  2  0
 94 96  1  0
 96 97  1  0
 97 98  1  1
 98 99  1  0
 99100  2  0
 99101  1  0
 97102  1  0
102103  2  0
102104  1  0
 50 44  1  0
M  CHG  7  15   1  38   1  74  -1  85   1  93  -1 101  -1 104  -1
M  END
>  <shape_align_shape_tanimoto>  (1) 
0.26851815541920859

>  <shape_align_color_tanimoto>  (1) 
0.0037720009131031939

>  <metric>  (1) 
shape

>  <metric_score>  (1) 
0.269

>  <template_pid>  (1) 
3L3Z

>  <template_shape_score>  (1) 
0.269

>  <template_color_score>  (1) 
0.004

>  <template_combo_score>  (1) 
0.136

$$$$
3L3Z_color_pose
     RDKit          3D

104104  0  0  0  0  0  0  0  0999 V2000
   29.6104  -51.4234  -33.7030 C   0  0  0  0  0  0  0  0  0  0  0  0
   30.4668  -51.6063  -32.5143 C   0  0  0  0  0  0  0  0  0  0  0  0
   30.0642  -50.5973  -31.4450 C   0  0  0  0  0  0  0  0  0  0  0  0
   30.6625  -52.9611  -31.9558 C   0  0  0  0  0  0  0  0  0  0  0  0
   29.5496  -53.7617  -31.4467 C   0  0  2  0  0  0  0  0  0  0  0  0
   30.2225  -55.0189  -30.9171 N   0  0  0  0  0  0  0  0  0  0  0  0
   30.5554  -55.9069  -31.9853 C   0  0  0  0  0  0  0  0  0  0  0  0
   30.3070  -55.6328  -33.1812 O   0  0  0  0  0  0  0  0  0  0  0  0
   31.2327  -57.2337  -31.7593 C   0  0  2  0  0  0  0  0  0  0  0  0
   32.5645  -57.1090  -31.1044 C   0  0  0  0  0  0  0  0  0  0  0  0
   31.4668  -57.7177  -33.1354 N   0  0  0  0  0  0  0  0  0  0  0  0
   30.8693  -58.8966  -33.6444 C   0  0  0  0  0  0  0  0  0  0  0  0
   30.1092  -59.5036  -32.7969 O   0  0  0  0  0  0  0  0  0  0  0  0
   31.0648  -59.4158  -35.0101 C   0  0  1  0  0  0  0  0  0  0  0  0
   32.0626  -58.7352  -35.7807 N   0  0  0  0  0  0  0  0  0  0  0  0
   31.3245  -60.8951  -34.9625 C   0  0  0  0  0  0  0  0  0  0  0  0
   31.4951  -61.4914  -36.2843 C   0  0  0  0  0  0  0  0  0  0  0  0
   31.2857  -60.8591  -37.5315 N   0  0  0  0  0  0  0  0  0  0  0  0
   31.8722  -62.7118  -36.3299 O   0  0  0  0  0  0  0  0  0  0  0  0
   28.5519  -54.3241  -32.3697 C   0  0  0  0  0  0  0  0  0  0  0  0
   28.1006  -53.9525  -33.4321 O   0  0  0  0  0  0  0  0  0  0  0  0
   27.9577  -55.6211  -31.9194 N   0  0  0  0  0  0  0  0  0  0  0  0
   27.0441  -56.1788  -32.8558 C   0  0  1  0  0  0  0  0  0  0  0  0
   26.7020  -57.5981  -32.6271 C   0  0  0  0  0  0  0  0  0  0  0  0
   26.1104  -57.9431  -31.3015 C   0  0  0  0  0  0  0  0  0  0  0  0
   25.8071  -59.4413  -31.2216 C   0  0  0  0  0  0  0  0  0  0  0  0
   24.7975  -57.2427  -31.0730 C   0  0  0  0  0  0  0  0  0  0  0  0
   25.7589  -55.3977  -33.0934 C   0  0  0  0  0  0  0  0  0  0  0  0
   25.3850  -54.5218  -32.2897 O   0  0  0  0  0  0  0  0  0  0  0  0
   25.1129  -55.7680  -34.2788 N   0  0  0  0  0  0  0  0  0  0  0  0
   23.9107  -55.2994  -34.9360 C   0  0  1  0  0  0  0  0  0  0  0  0
   23.3185  -54.0180  -34.3789 C   0  0  0  0  0  0  0  0  0  0  0  0
   21.9495  -53.9096  -35.0621 C   0  0  0  0  0  0  0  0  0  0  0  0
   21.2468  -52.6204  -34.8348 C   0  0  0  0  0  0  0  0  0  0  0  0
   21.9166  -51.5257  -35.5483 N   0  0  0  0  0  0  0  0  0  0  0  0
   21.6642  -51.5555  -36.9823 C   0  0  0  0  0  0  0  0  0  0  0  0
   22.2739  -50.5381  -37.8148 N   0  0  0  0  0  0  0  0  0  0  0  0
   20.9404  -52.4199  -37.5530 N   0  0  0  0  0  0  0  0  0  0  0  0
   24.5759  -54.9519  -36.2476 C   0  0  0  0  0  0  0  0  0  0  0  0
   25.7823  -55.5216  -36.2494 O   0  0  0  0  0  0  0  0  0  0  0  0
   24.2901  -54.2377  -37.3558 N   0  0  0  0  0  0  0  0  0  0  0  0
   25.4105  -54.2097  -38.3821 C   0  0  1  0  0  0  0  0  0  0  0  0
   24.8726  -54.3009  -39.7350 C   0  0  0  0  0  0  0  0  0  0  0  0
   25.8385  -54.3048  -40.8524 C   0  0  0  0  0  0  0  0  0  0  0  0
   26.0916  -53.2454  -41.6516 C   0  0  0  0  0  0  0  0  0  0  0  0
   27.0054  -53.2042  -42.6862 C   0  0  0  0  0  0  0  0  0  0  0  0
   27.7197  -54.3921  -42.8964 C   0  0  0  0  0  0  0  0  0  0  0  0
   28.6758  -54.4748  -43.9179 O   0  0  0  0  0  0  0  0  0  0  0  0
   27.5182  -55.5125  -42.1230 C   0  0  0  0  0  0  0  0  0  0  0  0
   26.5769  -55.4711  -41.0976 C   0  0  0  0  0  0  0  0  0  0  0  0
   26.3065  -53.1643  -37.9258 C   0  0  0  0  0  0  0  0  0  0  0  0
   27.5440  -53.2858  -38.2338 O   0  0  0  0  0  0  0  0  0  0  0  0
   26.0001  -51.9992  -37.1583 N   0  0  0  0  0  0  0  0  0  0  0  0
   26.9661  -51.0956  -36.6619 C   0  0  1  0  0  0  0  0  0  0  0  0
   28.0727  -50.6342  -37.5459 C   0  0  0  0  0  0  0  0  0  0  0  0
   27.7993  -49.8959  -38.7785 C   0  0  0  0  0  0  0  0  0  0  0  0
   26.9896  -50.5304  -39.8412 C   0  0  0  0  0  0  0  0  0  0  0  0
   27.2560  -48.5072  -38.4829 C   0  0  0  0  0  0  0  0  0  0  0  0
   26.4838  -49.9808  -35.7948 C   0  0  0  0  0  0  0  0  0  0  0  0
   27.4430  -49.4159  -35.1289 O   0  0  0  0  0  0  0  0  0  0  0  0
   25.1724  -49.5356  -35.6620 N   0  0  0  0  0  0  0  0  0  0  0  0
   24.5485  -48.5409  -34.8808 C   0  0  1  0  0  0  0  0  0  0  0  0
   25.3528  -48.3116  -33.5536 C   0  0  0  0  0  0  0  0  0  0  0  0
   25.3809  -49.5409  -32.7148 C   0  0  0  0  0  0  0  0  0  0  0  0
   26.1998  -49.2936  -31.4348 C   0  0  0  0  0  0  0  0  0  0  0  0
   23.9928  -49.9153  -32.2020 C   0  0  0  0  0  0  0  0  0  0  0  0
   24.1856  -47.2325  -35.3822 C   0  0  0  0  0  0  0  0  0  0  0  0
   23.1238  -46.7108  -34.8787 O   0  0  0  0  0  0  0  0  0  0  0  0
   24.8275  -46.4226  -36.3479 N   0  0  0  0  0  0  0  0  0  0  0  0
   24.2800  -45.1435  -36.6988 C   0  0  1  0  0  0  0  0  0  0  0  0
   25.1166  -43.9475  -36.3374 C   0  0  0  0  0  0  0  0  0  0  0  0
   25.4222  -43.7378  -34.9261 C   0  0  0  0  0  0  0  0  0  0  0  0
   24.8963  -44.4988  -34.0515 O   0  0  0  0  0  0  0  0  0  0  0  0
   26.2544  -42.7602  -34.4510 O   0  0  0  0  0  0  0  0  0  0  0  0
   24.0848  -44.9776  -38.1953 C   0  0  0  0  0  0  0  0  0  0  0  0
   23.3957  -43.9712  -38.5175 O   0  0  0  0  0  0  0  0  0  0  0  0
   24.6478  -45.8839  -39.0899 N   0  0  0  0  0  0  0  0  0  0  0  0
   24.6081  -45.9400  -40.5078 C   0  0  1  0  0  0  0  0  0  0  0  0
   23.2907  -45.3878  -41.1045 C   0  0  0  0  0  0  0  0  0  0  0  0
   22.1465  -46.1892  -40.5918 C   0  0  0  0  0  0  0  0  0  0  0  0
   22.1971  -47.6673  -40.9053 C   0  0  0  0  0  0  0  0  0  0  0  0
   22.2227  -47.9734  -42.3103 N   0  0  0  0  0  0  0  0  0  0  0  0
   22.2811  -49.3568  -42.7419 C   0  0  0  0  0  0  0  0  0  0  0  0
   22.2906  -49.5674  -44.1356 N   0  0  0  0  0  0  0  0  0  0  0  0
   22.3066  -50.3276  -41.8692 N   0  0  0  0  0  0  0  0  0  0  0  0
   25.7806  -45.3836  -41.1955 C   0  0  0  0  0  0  0  0  0  0  0  0
   25.7998  -45.4586  -42.4773 O   0  0  0  0  0  0  0  0  0  0  0  0
   26.8960  -44.7688  -40.5955 N   0  0  0  0  0  0  0  0  0  0  0  0
   28.0308  -44.2249  -41.3216 C   0  0  1  0  0  0  0  0  0  0  0  0
   28.2987  -42.7984  -40.9313 C   0  0  0  0  0  0  0  0  0  0  0  0
   27.1458  -41.9404  -41.2138 C   0  0  0  0  0  0  0  0  0  0  0  0
   26.1086  -42.4933  -41.7184 O   0  0  0  0  0  0  0  0  0  0  0  0
   27.0813  -40.5814  -40.9800 O   0  0  0  0  0  0  0  0  0  0  0  0
   29.1872  -45.1074  -41.0252 C   0  0  0  0  0  0  0  0  0  0  0  0
   28.9563  -46.0743  -40.2217 O   0  0  0  0  0  0  0  0  0  0  0  0
   30.4777  -44.9879  -41.5303 N   0  0  0  0  0  0  0  0  0  0  0  0
   31.5095  -45.9712  -41.1249 C   0  0  1  0  0  0  0  0  0  0  0  0
   32.0991  -46.6251  -42.3205 C   0  0  0  0  0  0  0  0  0  0  0  0
   33.0896  -47.6399  -41.9472 C   0  0  0  0  0  0  0  0  0  0  0  0
   33.3642  -47.9964  -40.7670 O   0  0  0  0  0  0  0  0  0  0  0  0
   33.8082  -48.2874  -42.9486 O   0  0  0  0  0  0  0  0  0  0  0  0
   32.5522  -45.2475  -40.3582 C   0  0  0  0  0  0  0  0  0  0  0  0
   32.6124  -43.9720  -40.4851 O   0  0  0  0  0  0  0  0  0  0  0  0
   33.4767  -45.8102  -39.5117 O   0  0  0  0  0  0  0  0  0  0  0  0
  1  2  1  0
  2  3  1  0
  2  4  1  0
  5  4  1  6
  5  6  1  0
  6  7  1  0
  7  8  2  0
  7  9  1  0
  9 10  1  6
  9 11  1  0
 11 12  1  0
 12 13  2  0
 12 14  1  0
 14 15  1  1
 14 16  1  0
 16 17  1  0
 17 18  1  0
 17 19  2  0
  5 20  1  0
 20 21  2  0
 20 22  1  0
 22 23  1  0
 23 24  1  1
 24 25  1  0
 25 26  1  0
 25 27  1  0
 23 28  1  0
 28 29  2  0
 28 30  1  0
 30 31  1  0
 31 32  1  1
 32 33  1  0
 33 34  1  0
 34 35  1  0
 35 36  1  0
 36 37  1  0
 36 38  2  0
 31 39  1  0
 39 40  2  0
 39 41  1  0
 41 42  1  0
 42 43  1  6
 43 44  1  0
 44 45  2  0
 45 46  1  0
 46 47  2  0
 47 48  1  0
 47 49  1  0
 49 50  2  0
 42 51  1  0
 51 52  2  0
 51 53  1  0
 53 54  1  0
 54 55  1  6
 55 56  1  0
 56 57  1  0
 56 58  1  0
 54 59  1  0
 59 60  2  0
 59 61  1  0
 61 62  1  0
 62 63  1  1
 63 64  1  0
 64 65  1  0
 64 66  1  0
 62 67  1  0
 67 68  2  0
 67 69  1  0
 69 70  1  0
 70 71  1  6
 71 72  1  0
 72 73  2  0
 72 74  1  0
 70 75  1  0
 75 76  2  0
 75 77  1  0
 77 78  1  0
 78 79  1  6
 79 80  1  0
 80 81  1  0
 81 82  1  0
 82 83  1  0
 83 84  1  0
 83 85  2  0
 78 86  1  0
 86 87  2  0
 86 88  1  0
 88 89  1  0
 89 90  1  1
 90 91  1  0
 91 92  2  0
 91 93  1  0
 89 94  1  0
 94 95  2  0
 94 96  1  0
 96 97  1  0
 97 98  1  6
 98 99  1  0
 99100  2  0
 99101  1  0
 97102  1  0
102103  2  0
102104  1  0
 50 44  1  0
M  CHG  7  15   1  38   1  74  -1  85   1  93  -1 101  -1 104  -1
M  END
>  <shape_align_shape_tanimoto>  (2) 
0.22006517223712929

>  <shape_align_color_tanimoto>  (2) 
0.0357894509035993

>  <metric>  (2) 
color

>  <metric_score>  (2) 
0.036

>  <template_pid>  (2) 
3L3Z

>  <template_shape_score>  (2) 
0.220

>  <template_color_score>  (2) 
0.036

>  <template_combo_score>  (2) 
0.128

$$$$
3L3Z_combo_pose
     RDKit          3D

104104  0  0  0  0  0  0  0  0999 V2000
   23.2242  -52.3071  -28.5847 C   0  0  0  0  0  0  0  0  0  0  0  0
   22.9941  -51.8295  -30.0518 C   0  0  0  0  0  0  0  0  0  0  0  0
   21.5508  -51.4326  -30.1921 C   0  0  0  0  0  0  0  0  0  0  0  0
   24.0472  -50.8146  -30.3497 C   0  0  0  0  0  0  0  0  0  0  0  0
   24.0885  -50.1776  -31.7177 C   0  0  2  0  0  0  0  0  0  0  0  0
   22.8977  -49.4309  -32.1151 N   0  0  0  0  0  0  0  0  0  0  0  0
   22.8681  -48.0064  -32.2182 C   0  0  0  0  0  0  0  0  0  0  0  0
   23.8957  -47.2890  -31.9771 O   0  0  0  0  0  0  0  0  0  0  0  0
   21.6111  -47.2292  -32.6226 C   0  0  2  0  0  0  0  0  0  0  0  0
   21.3376  -46.1243  -31.6200 C   0  0  0  0  0  0  0  0  0  0  0  0
   20.5090  -48.1583  -32.7956 N   0  0  0  0  0  0  0  0  0  0  0  0
   19.8982  -48.4908  -34.0682 C   0  0  0  0  0  0  0  0  0  0  0  0
   20.3678  -47.9266  -35.0931 O   0  0  0  0  0  0  0  0  0  0  0  0
   18.7671  -49.4716  -34.0592 C   0  0  1  0  0  0  0  0  0  0  0  0
   18.4509  -49.9405  -32.6919 N   0  0  0  0  0  0  0  0  0  0  0  0
   17.5148  -48.8720  -34.6679 C   0  0  0  0  0  0  0  0  0  0  0  0
   17.7866  -48.4771  -36.0890 C   0  0  0  0  0  0  0  0  0  0  0  0
   17.5599  -49.4879  -37.1154 N   0  0  0  0  0  0  0  0  0  0  0  0
   18.1964  -47.3292  -36.4524 O   0  0  0  0  0  0  0  0  0  0  0  0
   24.6793  -51.0580  -32.7695 C   0  0  0  0  0  0  0  0  0  0  0  0
   25.6339  -51.8485  -32.3616 O   0  0  0  0  0  0  0  0  0  0  0  0
   24.2662  -51.0787  -34.1573 N   0  0  0  0  0  0  0  0  0  0  0  0
   24.9601  -52.0319  -35.0360 C   0  0  1  0  0  0  0  0  0  0  0  0
   23.8566  -52.8509  -35.7793 C   0  0  0  0  0  0  0  0  0  0  0  0
   22.9069  -53.6318  -34.9409 C   0  0  0  0  0  0  0  0  0  0  0  0
   21.9270  -54.3484  -35.9408 C   0  0  0  0  0  0  0  0  0  0  0  0
   21.9755  -52.8259  -34.0245 C   0  0  0  0  0  0  0  0  0  0  0  0
   25.6410  -51.3032  -36.2184 C   0  0  0  0  0  0  0  0  0  0  0  0
   25.3985  -50.0672  -36.4219 O   0  0  0  0  0  0  0  0  0  0  0  0
   26.5479  -52.0663  -37.0816 N   0  0  0  0  0  0  0  0  0  0  0  0
   27.0744  -51.2486  -38.2360 C   0  0  1  0  0  0  0  0  0  0  0  0
   28.4445  -51.7228  -38.6278 C   0  0  0  0  0  0  0  0  0  0  0  0
   29.5231  -51.6805  -37.5558 C   0  0  0  0  0  0  0  0  0  0  0  0
   30.8169  -52.2166  -38.1966 C   0  0  0  0  0  0  0  0  0  0  0  0
   31.9467  -52.2680  -37.2861 N   0  0  0  0  0  0  0  0  0  0  0  0
   33.2022  -52.7642  -37.7949 C   0  0  0  0  0  0  0  0  0  0  0  0
   34.3400  -52.8346  -36.9158 N   0  0  0  0  0  0  0  0  0  0  0  0
   33.3072  -53.1508  -39.0447 N   0  0  0  0  0  0  0  0  0  0  0  0
   26.1827  -51.7632  -39.4459 C   0  0  0  0  0  0  0  0  0  0  0  0
   25.7090  -50.9350  -40.2645 O   0  0  0  0  0  0  0  0  0  0  0  0
   26.0152  -53.1818  -39.4438 N   0  0  0  0  0  0  0  0  0  0  0  0
   25.1787  -53.9704  -40.3516 C   0  0  1  0  0  0  0  0  0  0  0  0
   25.7912  -54.3063  -41.6863 C   0  0  0  0  0  0  0  0  0  0  0  0
   27.0357  -55.0968  -41.7283 C   0  0  0  0  0  0  0  0  0  0  0  0
   28.2711  -54.4607  -41.5893 C   0  0  0  0  0  0  0  0  0  0  0  0
   29.4982  -55.1396  -41.6513 C   0  0  0  0  0  0  0  0  0  0  0  0
   29.4742  -56.5053  -41.8594 C   0  0  0  0  0  0  0  0  0  0  0  0
   30.7102  -57.1812  -41.9193 O   0  0  0  0  0  0  0  0  0  0  0  0
   28.2611  -57.1654  -42.0007 C   0  0  0  0  0  0  0  0  0  0  0  0
   27.0287  -56.4873  -41.9399 C   0  0  0  0  0  0  0  0  0  0  0  0
   24.5721  -55.1254  -39.5962 C   0  0  0  0  0  0  0  0  0  0  0  0
   23.5682  -55.7909  -40.0680 O   0  0  0  0  0  0  0  0  0  0  0  0
   25.0650  -55.5700  -38.2879 N   0  0  0  0  0  0  0  0  0  0  0  0
   24.3435  -56.6494  -37.6523 C   0  0  1  0  0  0  0  0  0  0  0  0
   24.7458  -58.0493  -38.2457 C   0  0  0  0  0  0  0  0  0  0  0  0
   26.1627  -58.4469  -38.0322 C   0  0  0  0  0  0  0  0  0  0  0  0
   27.2853  -57.6216  -38.5596 C   0  0  0  0  0  0  0  0  0  0  0  0
   26.3010  -59.8887  -38.6223 C   0  0  0  0  0  0  0  0  0  0  0  0
   24.5547  -56.7391  -36.1681 C   0  0  0  0  0  0  0  0  0  0  0  0
   23.5807  -57.2979  -35.5060 O   0  0  0  0  0  0  0  0  0  0  0  0
   25.7506  -56.2656  -35.4850 N   0  0  0  0  0  0  0  0  0  0  0  0
   25.7242  -56.5082  -34.0123 C   0  0  1  0  0  0  0  0  0  0  0  0
   25.9219  -58.0730  -33.9640 C   0  0  0  0  0  0  0  0  0  0  0  0
   25.9483  -58.6822  -32.5968 C   0  0  0  0  0  0  0  0  0  0  0  0
   24.7135  -58.4223  -31.7307 C   0  0  0  0  0  0  0  0  0  0  0  0
   27.2200  -58.6458  -31.8107 C   0  0  0  0  0  0  0  0  0  0  0  0
   26.7322  -55.8390  -33.2038 C   0  0  0  0  0  0  0  0  0  0  0  0
   26.5712  -55.9440  -31.9018 O   0  0  0  0  0  0  0  0  0  0  0  0
   27.9082  -55.0723  -33.5762 N   0  0  0  0  0  0  0  0  0  0  0  0
   28.7529  -54.5703  -32.5268 C   0  0  1  0  0  0  0  0  0  0  0  0
   30.0401  -55.4898  -32.3996 C   0  0  0  0  0  0  0  0  0  0  0  0
   30.8056  -55.4794  -33.6658 C   0  0  0  0  0  0  0  0  0  0  0  0
   30.4338  -54.7727  -34.6528 O   0  0  0  0  0  0  0  0  0  0  0  0
   31.9665  -56.2468  -33.8164 O   0  0  0  0  0  0  0  0  0  0  0  0
   29.1870  -53.1605  -32.4725 C   0  0  0  0  0  0  0  0  0  0  0  0
   29.8488  -52.8624  -31.3539 O   0  0  0  0  0  0  0  0  0  0  0  0
   29.0384  -52.0827  -33.3715 N   0  0  0  0  0  0  0  0  0  0  0  0
   29.5970  -50.7484  -33.0031 C   0  0  1  0  0  0  0  0  0  0  0  0
   30.9035  -50.4989  -33.7535 C   0  0  0  0  0  0  0  0  0  0  0  0
   31.4777  -49.1365  -33.3671 C   0  0  0  0  0  0  0  0  0  0  0  0
   32.8842  -48.9168  -34.0322 C   0  0  0  0  0  0  0  0  0  0  0  0
   33.4604  -47.6398  -33.6547 N   0  0  0  0  0  0  0  0  0  0  0  0
   33.0291  -46.3458  -34.0708 C   0  0  0  0  0  0  0  0  0  0  0  0
   33.7421  -45.1831  -33.5454 N   0  0  0  0  0  0  0  0  0  0  0  0
   32.0368  -46.1651  -34.8751 N   0  0  0  0  0  0  0  0  0  0  0  0
   28.6070  -49.6770  -33.2076 C   0  0  0  0  0  0  0  0  0  0  0  0
   27.5492  -49.9995  -33.9104 O   0  0  0  0  0  0  0  0  0  0  0  0
   28.6256  -48.3327  -32.7394 N   0  0  0  0  0  0  0  0  0  0  0  0
   27.4873  -47.4703  -33.0665 C   0  0  1  0  0  0  0  0  0  0  0  0
   27.1934  -46.4399  -32.0002 C   0  0  0  0  0  0  0  0  0  0  0  0
   26.8985  -47.0380  -30.6470 C   0  0  0  0  0  0  0  0  0  0  0  0
   26.4191  -46.3423  -29.6715 O   0  0  0  0  0  0  0  0  0  0  0  0
   27.1288  -48.4029  -30.3523 O   0  0  0  0  0  0  0  0  0  0  0  0
   27.6674  -46.7341  -34.3804 C   0  0  0  0  0  0  0  0  0  0  0  0
   28.7059  -46.7982  -35.0931 O   0  0  0  0  0  0  0  0  0  0  0  0
   26.5587  -45.9177  -34.8170 N   0  0  0  0  0  0  0  0  0  0  0  0
   26.6875  -45.1733  -36.1116 C   0  0  1  0  0  0  0  0  0  0  0  0
   25.5796  -45.5778  -37.0562 C   0  0  0  0  0  0  0  0  0  0  0  0
   25.6262  -44.9153  -38.4058 C   0  0  0  0  0  0  0  0  0  0  0  0
   26.5894  -44.1798  -38.7605 O   0  0  0  0  0  0  0  0  0  0  0  0
   24.5264  -45.1554  -39.2698 O   0  0  0  0  0  0  0  0  0  0  0  0
   26.4895  -43.6888  -35.7663 C   0  0  0  0  0  0  0  0  0  0  0  0
   26.7710  -42.7541  -36.5777 O   0  0  0  0  0  0  0  0  0  0  0  0
   25.9743  -43.3051  -34.5060 O   0  0  0  0  0  0  0  0  0  0  0  0
  1  2  1  0
  2  3  1  0
  2  4  1  0
  5  4  1  1
  5  6  1  0
  6  7  1  0
  7  8  2  0
  7  9  1  0
  9 10  1  1
  9 11  1  0
 11 12  1  0
 12 13  2  0
 12 14  1  0
 14 15  1  1
 14 16  1  0
 16 17  1  0
 17 18  1  0
 17 19  2  0
  5 20  1  0
 20 21  2  0
 20 22  1  0
 22 23  1  0
 23 24  1  6
 24 25  1  0
 25 26  1  0
 25 27  1  0
 23 28  1  0
 28 29  2  0
 28 30  1  0
 30 31  1  0
 31 32  1  6
 32 33  1  0
 33 34  1  0
 34 35  1  0
 35 36  1  0
 36 37  1  0
 36 38  2  0
 31 39  1  0
 39 40  2  0
 39 41  1  0
 41 42  1  0
 42 43  1  6
 43 44  1  0
 44 45  2  0
 45 46  1  0
 46 47  2  0
 47 48  1  0
 47 49  1  0
 49 50  2  0
 42 51  1  0
 51 52  2  0
 51 53  1  0
 53 54  1  0
 54 55  1  6
 55 56  1  0
 56 57  1  0
 56 58  1  0
 54 59  1  0
 59 60  2  0
 59 61  1  0
 61 62  1  0
 62 63  1  6
 63 64  1  0
 64 65  1  0
 64 66  1  0
 62 67  1  0
 67 68  2  0
 67 69  1  0
 69 70  1  0
 70 71  1  6
 71 72  1  0
 72 73  2  0
 72 74  1  0
 70 75  1  0
 75 76  2  0
 75 77  1  0
 77 78  1  0
 78 79  1  6
 79 80  1  0
 80 81  1  0
 81 82  1  0
 82 83  1  0
 83 84  1  0
 83 85  2  0
 78 86  1  0
 86 87  2  0
 86 88  1  0
 88 89  1  0
 89 90  1  1
 90 91  1  0
 91 92  2  0
 91 93  1  0
 89 94  1  0
 94 95  2  0
 94 96  1  0
 96 97  1  0
 97 98  1  6
 98 99  1  0
 99100  2  0
 99101  1  0
 97102  1  0
102103  2  0
102104  1  0
 50 44  1  0
M  CHG  7  15   1  38   1  74  -1  85   1  93  -1 101  -1 104  -1
M  END
>  <shape_align_shape_tanimoto>  (3) 
0.26467835300069831

>  <shape_align_color_tanimoto>  (3) 
0.021043754533863934

>  <metric>  (3) 
combo

>  <metric_score>  (3) 
0.143

>  <template_pid>  (3) 
3L3Z

>  <template_shape_score>  (3) 
0.265

>  <template_color_score>  (3) 
0.021

>  <template_combo_score>  (3) 
0.143

$$$$
